
---------- Begin Simulation Statistics ----------
sim_seconds                                  0.018686                       # Number of seconds simulated
sim_ticks                                 18685894000                       # Number of ticks simulated
final_tick                                18685894000                       # Number of ticks from beginning of simulation (restored from checkpoints and never reset)
sim_freq                                 1000000000000                       # Frequency of simulated ticks
host_inst_rate                                 156357                       # Simulator instruction rate (inst/s)
host_op_rate                                   156357                       # Simulator op (including micro ops) rate (op/s)
host_tick_rate                               50081371                       # Simulator tick rate (ticks/s)
host_mem_usage                                 370096                       # Number of bytes of host memory used
host_seconds                                   373.11                       # Real time elapsed on the host
sim_insts                                    58338467                       # Number of instructions simulated
sim_ops                                      58338467                       # Number of ops (including micro ops) simulated
system.physmem.bytes_read::cpu0.inst           158528                       # Number of bytes read from this memory
system.physmem.bytes_read::cpu0.data          5464832                       # Number of bytes read from this memory
system.physmem.bytes_read::cpu1.inst            20800                       # Number of bytes read from this memory
system.physmem.bytes_read::cpu1.data          3151872                       # Number of bytes read from this memory
system.physmem.bytes_read::cpu2.inst            10816                       # Number of bytes read from this memory
system.physmem.bytes_read::cpu2.data          3146496                       # Number of bytes read from this memory
system.physmem.bytes_read::cpu3.inst             5504                       # Number of bytes read from this memory
system.physmem.bytes_read::cpu3.data          3145216                       # Number of bytes read from this memory
system.physmem.bytes_read::total             15104064                       # Number of bytes read from this memory
system.physmem.bytes_inst_read::cpu0.inst       158528                       # Number of instructions bytes read from this memory
system.physmem.bytes_inst_read::cpu1.inst        20800                       # Number of instructions bytes read from this memory
system.physmem.bytes_inst_read::cpu2.inst        10816                       # Number of instructions bytes read from this memory
system.physmem.bytes_inst_read::cpu3.inst         5504                       # Number of instructions bytes read from this memory
system.physmem.bytes_inst_read::total          195648                       # Number of instructions bytes read from this memory
system.physmem.bytes_written::writebacks      7233472                       # Number of bytes written to this memory
system.physmem.bytes_written::total           7233472                       # Number of bytes written to this memory
system.physmem.num_reads::cpu0.inst              2477                       # Number of read requests responded to by this memory
system.physmem.num_reads::cpu0.data             85388                       # Number of read requests responded to by this memory
system.physmem.num_reads::cpu1.inst               325                       # Number of read requests responded to by this memory
system.physmem.num_reads::cpu1.data             49248                       # Number of read requests responded to by this memory
system.physmem.num_reads::cpu2.inst               169                       # Number of read requests responded to by this memory
system.physmem.num_reads::cpu2.data             49164                       # Number of read requests responded to by this memory
system.physmem.num_reads::cpu3.inst                86                       # Number of read requests responded to by this memory
system.physmem.num_reads::cpu3.data             49144                       # Number of read requests responded to by this memory
system.physmem.num_reads::total                236001                       # Number of read requests responded to by this memory
system.physmem.num_writes::writebacks          113023                       # Number of write requests responded to by this memory
system.physmem.num_writes::total               113023                       # Number of write requests responded to by this memory
system.physmem.bw_read::cpu0.inst             8483833                       # Total read bandwidth from this memory (bytes/s)
system.physmem.bw_read::cpu0.data           292457615                       # Total read bandwidth from this memory (bytes/s)
system.physmem.bw_read::cpu1.inst             1113139                       # Total read bandwidth from this memory (bytes/s)
system.physmem.bw_read::cpu1.data           168676543                       # Total read bandwidth from this memory (bytes/s)
system.physmem.bw_read::cpu2.inst              578832                       # Total read bandwidth from this memory (bytes/s)
system.physmem.bw_read::cpu2.data           168388839                       # Total read bandwidth from this memory (bytes/s)
system.physmem.bw_read::cpu3.inst              294554                       # Total read bandwidth from this memory (bytes/s)
system.physmem.bw_read::cpu3.data           168320338                       # Total read bandwidth from this memory (bytes/s)
system.physmem.bw_read::total               808313694                       # Total read bandwidth from this memory (bytes/s)
system.physmem.bw_inst_read::cpu0.inst        8483833                       # Instruction read bandwidth from this memory (bytes/s)
system.physmem.bw_inst_read::cpu1.inst        1113139                       # Instruction read bandwidth from this memory (bytes/s)
system.physmem.bw_inst_read::cpu2.inst         578832                       # Instruction read bandwidth from this memory (bytes/s)
system.physmem.bw_inst_read::cpu3.inst         294554                       # Instruction read bandwidth from this memory (bytes/s)
system.physmem.bw_inst_read::total           10470358                       # Instruction read bandwidth from this memory (bytes/s)
system.physmem.bw_write::writebacks         387108693                       # Write bandwidth from this memory (bytes/s)
system.physmem.bw_write::total              387108693                       # Write bandwidth from this memory (bytes/s)
system.physmem.bw_total::writebacks         387108693                       # Total bandwidth to/from this memory (bytes/s)
system.physmem.bw_total::cpu0.inst            8483833                       # Total bandwidth to/from this memory (bytes/s)
system.physmem.bw_total::cpu0.data          292457615                       # Total bandwidth to/from this memory (bytes/s)
system.physmem.bw_total::cpu1.inst            1113139                       # Total bandwidth to/from this memory (bytes/s)
system.physmem.bw_total::cpu1.data          168676543                       # Total bandwidth to/from this memory (bytes/s)
system.physmem.bw_total::cpu2.inst             578832                       # Total bandwidth to/from this memory (bytes/s)
system.physmem.bw_total::cpu2.data          168388839                       # Total bandwidth to/from this memory (bytes/s)
system.physmem.bw_total::cpu3.inst             294554                       # Total bandwidth to/from this memory (bytes/s)
system.physmem.bw_total::cpu3.data          168320338                       # Total bandwidth to/from this memory (bytes/s)
system.physmem.bw_total::total             1195422387                       # Total bandwidth to/from this memory (bytes/s)
workload.num_syscalls                             247                       # Number of system calls
system.l2.replacements                         262222                       # number of replacements
system.l2.tagsinuse                       2367.309803                       # Cycle average of tags in use
system.l2.total_refs                             6503                       # Total number of references to valid blocks.
system.l2.sampled_refs                         265200                       # Sample count of references to valid blocks.
system.l2.avg_refs                           0.024521                       # Average number of references to valid blocks.
system.l2.warmup_cycle                    15490985000                       # Cycle when the warmup percentage was hit.
system.l2.occ_blocks::writebacks          1835.854054                       # Average occupied blocks per requestor
system.l2.occ_blocks::cpu0.inst             79.888856                       # Average occupied blocks per requestor
system.l2.occ_blocks::cpu0.data            141.135259                       # Average occupied blocks per requestor
system.l2.occ_blocks::cpu1.inst              1.172338                       # Average occupied blocks per requestor
system.l2.occ_blocks::cpu1.data            112.784264                       # Average occupied blocks per requestor
system.l2.occ_blocks::cpu2.inst              0.446469                       # Average occupied blocks per requestor
system.l2.occ_blocks::cpu2.data            111.521261                       # Average occupied blocks per requestor
system.l2.occ_blocks::cpu3.inst              0.173056                       # Average occupied blocks per requestor
system.l2.occ_blocks::cpu3.data             84.334247                       # Average occupied blocks per requestor
system.l2.occ_percent::writebacks            0.448207                       # Average percentage of cache occupancy
system.l2.occ_percent::cpu0.inst             0.019504                       # Average percentage of cache occupancy
system.l2.occ_percent::cpu0.data             0.034457                       # Average percentage of cache occupancy
system.l2.occ_percent::cpu1.inst             0.000286                       # Average percentage of cache occupancy
system.l2.occ_percent::cpu1.data             0.027535                       # Average percentage of cache occupancy
system.l2.occ_percent::cpu2.inst             0.000109                       # Average percentage of cache occupancy
system.l2.occ_percent::cpu2.data             0.027227                       # Average percentage of cache occupancy
system.l2.occ_percent::cpu3.inst             0.000042                       # Average percentage of cache occupancy
system.l2.occ_percent::cpu3.data             0.020589                       # Average percentage of cache occupancy
system.l2.occ_percent::total                 0.577956                       # Average percentage of cache occupancy
system.l2.ReadReq_hits::cpu0.inst                1888                       # number of ReadReq hits
system.l2.ReadReq_hits::cpu0.data                 437                       # number of ReadReq hits
system.l2.ReadReq_hits::cpu1.inst                 361                       # number of ReadReq hits
system.l2.ReadReq_hits::cpu1.data                 393                       # number of ReadReq hits
system.l2.ReadReq_hits::cpu2.inst                 484                       # number of ReadReq hits
system.l2.ReadReq_hits::cpu2.data                 446                       # number of ReadReq hits
system.l2.ReadReq_hits::cpu3.inst                 400                       # number of ReadReq hits
system.l2.ReadReq_hits::cpu3.data                 462                       # number of ReadReq hits
system.l2.ReadReq_hits::total                    4871                       # number of ReadReq hits
system.l2.Writeback_hits::writebacks           115469                       # number of Writeback hits
system.l2.Writeback_hits::total                115469                       # number of Writeback hits
system.l2.UpgradeReq_hits::cpu0.data                4                       # number of UpgradeReq hits
system.l2.UpgradeReq_hits::cpu1.data                2                       # number of UpgradeReq hits
system.l2.UpgradeReq_hits::cpu2.data                1                       # number of UpgradeReq hits
system.l2.UpgradeReq_hits::cpu3.data                1                       # number of UpgradeReq hits
system.l2.UpgradeReq_hits::total                    8                       # number of UpgradeReq hits
system.l2.SCUpgradeReq_hits::cpu2.data              2                       # number of SCUpgradeReq hits
system.l2.SCUpgradeReq_hits::cpu3.data              3                       # number of SCUpgradeReq hits
system.l2.SCUpgradeReq_hits::total                  5                       # number of SCUpgradeReq hits
system.l2.ReadExReq_hits::cpu0.data                41                       # number of ReadExReq hits
system.l2.ReadExReq_hits::cpu1.data                31                       # number of ReadExReq hits
system.l2.ReadExReq_hits::cpu2.data                20                       # number of ReadExReq hits
system.l2.ReadExReq_hits::cpu3.data                 5                       # number of ReadExReq hits
system.l2.ReadExReq_hits::total                    97                       # number of ReadExReq hits
system.l2.demand_hits::cpu0.inst                 1888                       # number of demand (read+write) hits
system.l2.demand_hits::cpu0.data                  478                       # number of demand (read+write) hits
system.l2.demand_hits::cpu1.inst                  361                       # number of demand (read+write) hits
system.l2.demand_hits::cpu1.data                  424                       # number of demand (read+write) hits
system.l2.demand_hits::cpu2.inst                  484                       # number of demand (read+write) hits
system.l2.demand_hits::cpu2.data                  466                       # number of demand (read+write) hits
system.l2.demand_hits::cpu3.inst                  400                       # number of demand (read+write) hits
system.l2.demand_hits::cpu3.data                  467                       # number of demand (read+write) hits
system.l2.demand_hits::total                     4968                       # number of demand (read+write) hits
system.l2.overall_hits::cpu0.inst                1888                       # number of overall hits
system.l2.overall_hits::cpu0.data                 478                       # number of overall hits
system.l2.overall_hits::cpu1.inst                 361                       # number of overall hits
system.l2.overall_hits::cpu1.data                 424                       # number of overall hits
system.l2.overall_hits::cpu2.inst                 484                       # number of overall hits
system.l2.overall_hits::cpu2.data                 466                       # number of overall hits
system.l2.overall_hits::cpu3.inst                 400                       # number of overall hits
system.l2.overall_hits::cpu3.data                 467                       # number of overall hits
system.l2.overall_hits::total                    4968                       # number of overall hits
system.l2.ReadReq_misses::cpu0.inst              2485                       # number of ReadReq misses
system.l2.ReadReq_misses::cpu0.data             37903                       # number of ReadReq misses
system.l2.ReadReq_misses::cpu1.inst               381                       # number of ReadReq misses
system.l2.ReadReq_misses::cpu1.data             36884                       # number of ReadReq misses
system.l2.ReadReq_misses::cpu2.inst               207                       # number of ReadReq misses
system.l2.ReadReq_misses::cpu2.data             36807                       # number of ReadReq misses
system.l2.ReadReq_misses::cpu3.inst               103                       # number of ReadReq misses
system.l2.ReadReq_misses::cpu3.data             36778                       # number of ReadReq misses
system.l2.ReadReq_misses::total                151548                       # number of ReadReq misses
system.l2.UpgradeReq_misses::cpu0.data              6                       # number of UpgradeReq misses
system.l2.UpgradeReq_misses::cpu1.data              1                       # number of UpgradeReq misses
system.l2.UpgradeReq_misses::cpu2.data              1                       # number of UpgradeReq misses
system.l2.UpgradeReq_misses::total                  8                       # number of UpgradeReq misses
system.l2.SCUpgradeReq_misses::cpu0.data            2                       # number of SCUpgradeReq misses
system.l2.SCUpgradeReq_misses::cpu1.data            1                       # number of SCUpgradeReq misses
system.l2.SCUpgradeReq_misses::cpu3.data            1                       # number of SCUpgradeReq misses
system.l2.SCUpgradeReq_misses::total                4                       # number of SCUpgradeReq misses
system.l2.ReadExReq_misses::cpu0.data           47495                       # number of ReadExReq misses
system.l2.ReadExReq_misses::cpu1.data           12378                       # number of ReadExReq misses
system.l2.ReadExReq_misses::cpu2.data           12376                       # number of ReadExReq misses
system.l2.ReadExReq_misses::cpu3.data           12381                       # number of ReadExReq misses
system.l2.ReadExReq_misses::total               84630                       # number of ReadExReq misses
system.l2.demand_misses::cpu0.inst               2485                       # number of demand (read+write) misses
system.l2.demand_misses::cpu0.data              85398                       # number of demand (read+write) misses
system.l2.demand_misses::cpu1.inst                381                       # number of demand (read+write) misses
system.l2.demand_misses::cpu1.data              49262                       # number of demand (read+write) misses
system.l2.demand_misses::cpu2.inst                207                       # number of demand (read+write) misses
system.l2.demand_misses::cpu2.data              49183                       # number of demand (read+write) misses
system.l2.demand_misses::cpu3.inst                103                       # number of demand (read+write) misses
system.l2.demand_misses::cpu3.data              49159                       # number of demand (read+write) misses
system.l2.demand_misses::total                 236178                       # number of demand (read+write) misses
system.l2.overall_misses::cpu0.inst              2485                       # number of overall misses
system.l2.overall_misses::cpu0.data             85398                       # number of overall misses
system.l2.overall_misses::cpu1.inst               381                       # number of overall misses
system.l2.overall_misses::cpu1.data             49262                       # number of overall misses
system.l2.overall_misses::cpu2.inst               207                       # number of overall misses
system.l2.overall_misses::cpu2.data             49183                       # number of overall misses
system.l2.overall_misses::cpu3.inst               103                       # number of overall misses
system.l2.overall_misses::cpu3.data             49159                       # number of overall misses
system.l2.overall_misses::total                236178                       # number of overall misses
system.l2.ReadReq_miss_latency::cpu0.inst    129278000                       # number of ReadReq miss cycles
system.l2.ReadReq_miss_latency::cpu0.data   2003197000                       # number of ReadReq miss cycles
system.l2.ReadReq_miss_latency::cpu1.inst     19611000                       # number of ReadReq miss cycles
system.l2.ReadReq_miss_latency::cpu1.data   1951348000                       # number of ReadReq miss cycles
system.l2.ReadReq_miss_latency::cpu2.inst     10516000                       # number of ReadReq miss cycles
system.l2.ReadReq_miss_latency::cpu2.data   1945435000                       # number of ReadReq miss cycles
system.l2.ReadReq_miss_latency::cpu3.inst      5245000                       # number of ReadReq miss cycles
system.l2.ReadReq_miss_latency::cpu3.data   1945134000                       # number of ReadReq miss cycles
system.l2.ReadReq_miss_latency::total      8009764000                       # number of ReadReq miss cycles
system.l2.UpgradeReq_miss_latency::cpu2.data        52000                       # number of UpgradeReq miss cycles
system.l2.UpgradeReq_miss_latency::total        52000                       # number of UpgradeReq miss cycles
system.l2.ReadExReq_miss_latency::cpu0.data   2515773000                       # number of ReadExReq miss cycles
system.l2.ReadExReq_miss_latency::cpu1.data    675884000                       # number of ReadExReq miss cycles
system.l2.ReadExReq_miss_latency::cpu2.data    689729000                       # number of ReadExReq miss cycles
system.l2.ReadExReq_miss_latency::cpu3.data    693596000                       # number of ReadExReq miss cycles
system.l2.ReadExReq_miss_latency::total    4574982000                       # number of ReadExReq miss cycles
system.l2.demand_miss_latency::cpu0.inst    129278000                       # number of demand (read+write) miss cycles
system.l2.demand_miss_latency::cpu0.data   4518970000                       # number of demand (read+write) miss cycles
system.l2.demand_miss_latency::cpu1.inst     19611000                       # number of demand (read+write) miss cycles
system.l2.demand_miss_latency::cpu1.data   2627232000                       # number of demand (read+write) miss cycles
system.l2.demand_miss_latency::cpu2.inst     10516000                       # number of demand (read+write) miss cycles
system.l2.demand_miss_latency::cpu2.data   2635164000                       # number of demand (read+write) miss cycles
system.l2.demand_miss_latency::cpu3.inst      5245000                       # number of demand (read+write) miss cycles
system.l2.demand_miss_latency::cpu3.data   2638730000                       # number of demand (read+write) miss cycles
system.l2.demand_miss_latency::total      12584746000                       # number of demand (read+write) miss cycles
system.l2.overall_miss_latency::cpu0.inst    129278000                       # number of overall miss cycles
system.l2.overall_miss_latency::cpu0.data   4518970000                       # number of overall miss cycles
system.l2.overall_miss_latency::cpu1.inst     19611000                       # number of overall miss cycles
system.l2.overall_miss_latency::cpu1.data   2627232000                       # number of overall miss cycles
system.l2.overall_miss_latency::cpu2.inst     10516000                       # number of overall miss cycles
system.l2.overall_miss_latency::cpu2.data   2635164000                       # number of overall miss cycles
system.l2.overall_miss_latency::cpu3.inst      5245000                       # number of overall miss cycles
system.l2.overall_miss_latency::cpu3.data   2638730000                       # number of overall miss cycles
system.l2.overall_miss_latency::total     12584746000                       # number of overall miss cycles
system.l2.ReadReq_accesses::cpu0.inst            4373                       # number of ReadReq accesses(hits+misses)
system.l2.ReadReq_accesses::cpu0.data           38340                       # number of ReadReq accesses(hits+misses)
system.l2.ReadReq_accesses::cpu1.inst             742                       # number of ReadReq accesses(hits+misses)
system.l2.ReadReq_accesses::cpu1.data           37277                       # number of ReadReq accesses(hits+misses)
system.l2.ReadReq_accesses::cpu2.inst             691                       # number of ReadReq accesses(hits+misses)
system.l2.ReadReq_accesses::cpu2.data           37253                       # number of ReadReq accesses(hits+misses)
system.l2.ReadReq_accesses::cpu3.inst             503                       # number of ReadReq accesses(hits+misses)
system.l2.ReadReq_accesses::cpu3.data           37240                       # number of ReadReq accesses(hits+misses)
system.l2.ReadReq_accesses::total              156419                       # number of ReadReq accesses(hits+misses)
system.l2.Writeback_accesses::writebacks       115469                       # number of Writeback accesses(hits+misses)
system.l2.Writeback_accesses::total            115469                       # number of Writeback accesses(hits+misses)
system.l2.UpgradeReq_accesses::cpu0.data           10                       # number of UpgradeReq accesses(hits+misses)
system.l2.UpgradeReq_accesses::cpu1.data            3                       # number of UpgradeReq accesses(hits+misses)
system.l2.UpgradeReq_accesses::cpu2.data            2                       # number of UpgradeReq accesses(hits+misses)
system.l2.UpgradeReq_accesses::cpu3.data            1                       # number of UpgradeReq accesses(hits+misses)
system.l2.UpgradeReq_accesses::total               16                       # number of UpgradeReq accesses(hits+misses)
system.l2.SCUpgradeReq_accesses::cpu0.data            2                       # number of SCUpgradeReq accesses(hits+misses)
system.l2.SCUpgradeReq_accesses::cpu1.data            1                       # number of SCUpgradeReq accesses(hits+misses)
system.l2.SCUpgradeReq_accesses::cpu2.data            2                       # number of SCUpgradeReq accesses(hits+misses)
system.l2.SCUpgradeReq_accesses::cpu3.data            4                       # number of SCUpgradeReq accesses(hits+misses)
system.l2.SCUpgradeReq_accesses::total              9                       # number of SCUpgradeReq accesses(hits+misses)
system.l2.ReadExReq_accesses::cpu0.data         47536                       # number of ReadExReq accesses(hits+misses)
system.l2.ReadExReq_accesses::cpu1.data         12409                       # number of ReadExReq accesses(hits+misses)
system.l2.ReadExReq_accesses::cpu2.data         12396                       # number of ReadExReq accesses(hits+misses)
system.l2.ReadExReq_accesses::cpu3.data         12386                       # number of ReadExReq accesses(hits+misses)
system.l2.ReadExReq_accesses::total             84727                       # number of ReadExReq accesses(hits+misses)
system.l2.demand_accesses::cpu0.inst             4373                       # number of demand (read+write) accesses
system.l2.demand_accesses::cpu0.data            85876                       # number of demand (read+write) accesses
system.l2.demand_accesses::cpu1.inst              742                       # number of demand (read+write) accesses
system.l2.demand_accesses::cpu1.data            49686                       # number of demand (read+write) accesses
system.l2.demand_accesses::cpu2.inst              691                       # number of demand (read+write) accesses
system.l2.demand_accesses::cpu2.data            49649                       # number of demand (read+write) accesses
system.l2.demand_accesses::cpu3.inst              503                       # number of demand (read+write) accesses
system.l2.demand_accesses::cpu3.data            49626                       # number of demand (read+write) accesses
system.l2.demand_accesses::total               241146                       # number of demand (read+write) accesses
system.l2.overall_accesses::cpu0.inst            4373                       # number of overall (read+write) accesses
system.l2.overall_accesses::cpu0.data           85876                       # number of overall (read+write) accesses
system.l2.overall_accesses::cpu1.inst             742                       # number of overall (read+write) accesses
system.l2.overall_accesses::cpu1.data           49686                       # number of overall (read+write) accesses
system.l2.overall_accesses::cpu2.inst             691                       # number of overall (read+write) accesses
system.l2.overall_accesses::cpu2.data           49649                       # number of overall (read+write) accesses
system.l2.overall_accesses::cpu3.inst             503                       # number of overall (read+write) accesses
system.l2.overall_accesses::cpu3.data           49626                       # number of overall (read+write) accesses
system.l2.overall_accesses::total              241146                       # number of overall (read+write) accesses
system.l2.ReadReq_miss_rate::cpu0.inst       0.568260                       # miss rate for ReadReq accesses
system.l2.ReadReq_miss_rate::cpu0.data       0.988602                       # miss rate for ReadReq accesses
system.l2.ReadReq_miss_rate::cpu1.inst       0.513477                       # miss rate for ReadReq accesses
system.l2.ReadReq_miss_rate::cpu1.data       0.989457                       # miss rate for ReadReq accesses
system.l2.ReadReq_miss_rate::cpu2.inst       0.299566                       # miss rate for ReadReq accesses
system.l2.ReadReq_miss_rate::cpu2.data       0.988028                       # miss rate for ReadReq accesses
system.l2.ReadReq_miss_rate::cpu3.inst       0.204771                       # miss rate for ReadReq accesses
system.l2.ReadReq_miss_rate::cpu3.data       0.987594                       # miss rate for ReadReq accesses
system.l2.ReadReq_miss_rate::total           0.968859                       # miss rate for ReadReq accesses
system.l2.UpgradeReq_miss_rate::cpu0.data     0.600000                       # miss rate for UpgradeReq accesses
system.l2.UpgradeReq_miss_rate::cpu1.data     0.333333                       # miss rate for UpgradeReq accesses
system.l2.UpgradeReq_miss_rate::cpu2.data     0.500000                       # miss rate for UpgradeReq accesses
system.l2.UpgradeReq_miss_rate::total        0.500000                       # miss rate for UpgradeReq accesses
system.l2.SCUpgradeReq_miss_rate::cpu0.data            1                       # miss rate for SCUpgradeReq accesses
system.l2.SCUpgradeReq_miss_rate::cpu1.data            1                       # miss rate for SCUpgradeReq accesses
system.l2.SCUpgradeReq_miss_rate::cpu3.data     0.250000                       # miss rate for SCUpgradeReq accesses
system.l2.SCUpgradeReq_miss_rate::total      0.444444                       # miss rate for SCUpgradeReq accesses
system.l2.ReadExReq_miss_rate::cpu0.data     0.999137                       # miss rate for ReadExReq accesses
system.l2.ReadExReq_miss_rate::cpu1.data     0.997502                       # miss rate for ReadExReq accesses
system.l2.ReadExReq_miss_rate::cpu2.data     0.998387                       # miss rate for ReadExReq accesses
system.l2.ReadExReq_miss_rate::cpu3.data     0.999596                       # miss rate for ReadExReq accesses
system.l2.ReadExReq_miss_rate::total         0.998855                       # miss rate for ReadExReq accesses
system.l2.demand_miss_rate::cpu0.inst        0.568260                       # miss rate for demand accesses
system.l2.demand_miss_rate::cpu0.data        0.994434                       # miss rate for demand accesses
system.l2.demand_miss_rate::cpu1.inst        0.513477                       # miss rate for demand accesses
system.l2.demand_miss_rate::cpu1.data        0.991466                       # miss rate for demand accesses
system.l2.demand_miss_rate::cpu2.inst        0.299566                       # miss rate for demand accesses
system.l2.demand_miss_rate::cpu2.data        0.990614                       # miss rate for demand accesses
system.l2.demand_miss_rate::cpu3.inst        0.204771                       # miss rate for demand accesses
system.l2.demand_miss_rate::cpu3.data        0.990590                       # miss rate for demand accesses
system.l2.demand_miss_rate::total            0.979398                       # miss rate for demand accesses
system.l2.overall_miss_rate::cpu0.inst       0.568260                       # miss rate for overall accesses
system.l2.overall_miss_rate::cpu0.data       0.994434                       # miss rate for overall accesses
system.l2.overall_miss_rate::cpu1.inst       0.513477                       # miss rate for overall accesses
system.l2.overall_miss_rate::cpu1.data       0.991466                       # miss rate for overall accesses
system.l2.overall_miss_rate::cpu2.inst       0.299566                       # miss rate for overall accesses
system.l2.overall_miss_rate::cpu2.data       0.990614                       # miss rate for overall accesses
system.l2.overall_miss_rate::cpu3.inst       0.204771                       # miss rate for overall accesses
system.l2.overall_miss_rate::cpu3.data       0.990590                       # miss rate for overall accesses
system.l2.overall_miss_rate::total           0.979398                       # miss rate for overall accesses
system.l2.ReadReq_avg_miss_latency::cpu0.inst 52023.340040                       # average ReadReq miss latency
system.l2.ReadReq_avg_miss_latency::cpu0.data 52850.618685                       # average ReadReq miss latency
system.l2.ReadReq_avg_miss_latency::cpu1.inst 51472.440945                       # average ReadReq miss latency
system.l2.ReadReq_avg_miss_latency::cpu1.data 52904.999458                       # average ReadReq miss latency
system.l2.ReadReq_avg_miss_latency::cpu2.inst 50801.932367                       # average ReadReq miss latency
system.l2.ReadReq_avg_miss_latency::cpu2.data 52855.027576                       # average ReadReq miss latency
system.l2.ReadReq_avg_miss_latency::cpu3.inst 50922.330097                       # average ReadReq miss latency
system.l2.ReadReq_avg_miss_latency::cpu3.data 52888.520311                       # average ReadReq miss latency
system.l2.ReadReq_avg_miss_latency::total 52852.983873                       # average ReadReq miss latency
system.l2.UpgradeReq_avg_miss_latency::cpu2.data        52000                       # average UpgradeReq miss latency
system.l2.UpgradeReq_avg_miss_latency::total         6500                       # average UpgradeReq miss latency
system.l2.ReadExReq_avg_miss_latency::cpu0.data 52969.217812                       # average ReadExReq miss latency
system.l2.ReadExReq_avg_miss_latency::cpu1.data 54603.651640                       # average ReadExReq miss latency
system.l2.ReadExReq_avg_miss_latency::cpu2.data 55731.173239                       # average ReadExReq miss latency
system.l2.ReadExReq_avg_miss_latency::cpu3.data 56020.999919                       # average ReadExReq miss latency
system.l2.ReadExReq_avg_miss_latency::total 54058.631691                       # average ReadExReq miss latency
system.l2.demand_avg_miss_latency::cpu0.inst 52023.340040                       # average overall miss latency
system.l2.demand_avg_miss_latency::cpu0.data 52916.578843                       # average overall miss latency
system.l2.demand_avg_miss_latency::cpu1.inst 51472.440945                       # average overall miss latency
system.l2.demand_avg_miss_latency::cpu1.data 53331.817628                       # average overall miss latency
system.l2.demand_avg_miss_latency::cpu2.inst 50801.932367                       # average overall miss latency
system.l2.demand_avg_miss_latency::cpu2.data 53578.756888                       # average overall miss latency
system.l2.demand_avg_miss_latency::cpu3.inst 50922.330097                       # average overall miss latency
system.l2.demand_avg_miss_latency::cpu3.data 53677.454790                       # average overall miss latency
system.l2.demand_avg_miss_latency::total 53285.005377                       # average overall miss latency
system.l2.overall_avg_miss_latency::cpu0.inst 52023.340040                       # average overall miss latency
system.l2.overall_avg_miss_latency::cpu0.data 52916.578843                       # average overall miss latency
system.l2.overall_avg_miss_latency::cpu1.inst 51472.440945                       # average overall miss latency
system.l2.overall_avg_miss_latency::cpu1.data 53331.817628                       # average overall miss latency
system.l2.overall_avg_miss_latency::cpu2.inst 50801.932367                       # average overall miss latency
system.l2.overall_avg_miss_latency::cpu2.data 53578.756888                       # average overall miss latency
system.l2.overall_avg_miss_latency::cpu3.inst 50922.330097                       # average overall miss latency
system.l2.overall_avg_miss_latency::cpu3.data 53677.454790                       # average overall miss latency
system.l2.overall_avg_miss_latency::total 53285.005377                       # average overall miss latency
system.l2.blocked_cycles::no_mshrs                  0                       # number of cycles access was blocked
system.l2.blocked_cycles::no_targets                0                       # number of cycles access was blocked
system.l2.blocked::no_mshrs                         0                       # number of cycles access was blocked
system.l2.blocked::no_targets                       0                       # number of cycles access was blocked
system.l2.avg_blocked_cycles::no_mshrs            nan                       # average number of cycles each access was blocked
system.l2.avg_blocked_cycles::no_targets          nan                       # average number of cycles each access was blocked
system.l2.fast_writes                               0                       # number of fast writes performed
system.l2.cache_copies                              0                       # number of cache copies performed
system.l2.writebacks::writebacks               113023                       # number of writebacks
system.l2.writebacks::total                    113023                       # number of writebacks
system.l2.ReadReq_mshr_hits::cpu0.inst              8                       # number of ReadReq MSHR hits
system.l2.ReadReq_mshr_hits::cpu0.data             10                       # number of ReadReq MSHR hits
system.l2.ReadReq_mshr_hits::cpu1.inst             56                       # number of ReadReq MSHR hits
system.l2.ReadReq_mshr_hits::cpu1.data             14                       # number of ReadReq MSHR hits
system.l2.ReadReq_mshr_hits::cpu2.inst             38                       # number of ReadReq MSHR hits
system.l2.ReadReq_mshr_hits::cpu2.data             19                       # number of ReadReq MSHR hits
system.l2.ReadReq_mshr_hits::cpu3.inst             17                       # number of ReadReq MSHR hits
system.l2.ReadReq_mshr_hits::cpu3.data             15                       # number of ReadReq MSHR hits
system.l2.ReadReq_mshr_hits::total                177                       # number of ReadReq MSHR hits
system.l2.demand_mshr_hits::cpu0.inst               8                       # number of demand (read+write) MSHR hits
system.l2.demand_mshr_hits::cpu0.data              10                       # number of demand (read+write) MSHR hits
system.l2.demand_mshr_hits::cpu1.inst              56                       # number of demand (read+write) MSHR hits
system.l2.demand_mshr_hits::cpu1.data              14                       # number of demand (read+write) MSHR hits
system.l2.demand_mshr_hits::cpu2.inst              38                       # number of demand (read+write) MSHR hits
system.l2.demand_mshr_hits::cpu2.data              19                       # number of demand (read+write) MSHR hits
system.l2.demand_mshr_hits::cpu3.inst              17                       # number of demand (read+write) MSHR hits
system.l2.demand_mshr_hits::cpu3.data              15                       # number of demand (read+write) MSHR hits
system.l2.demand_mshr_hits::total                 177                       # number of demand (read+write) MSHR hits
system.l2.overall_mshr_hits::cpu0.inst              8                       # number of overall MSHR hits
system.l2.overall_mshr_hits::cpu0.data             10                       # number of overall MSHR hits
system.l2.overall_mshr_hits::cpu1.inst             56                       # number of overall MSHR hits
system.l2.overall_mshr_hits::cpu1.data             14                       # number of overall MSHR hits
system.l2.overall_mshr_hits::cpu2.inst             38                       # number of overall MSHR hits
system.l2.overall_mshr_hits::cpu2.data             19                       # number of overall MSHR hits
system.l2.overall_mshr_hits::cpu3.inst             17                       # number of overall MSHR hits
system.l2.overall_mshr_hits::cpu3.data             15                       # number of overall MSHR hits
system.l2.overall_mshr_hits::total                177                       # number of overall MSHR hits
system.l2.ReadReq_mshr_misses::cpu0.inst         2477                       # number of ReadReq MSHR misses
system.l2.ReadReq_mshr_misses::cpu0.data        37893                       # number of ReadReq MSHR misses
system.l2.ReadReq_mshr_misses::cpu1.inst          325                       # number of ReadReq MSHR misses
system.l2.ReadReq_mshr_misses::cpu1.data        36870                       # number of ReadReq MSHR misses
system.l2.ReadReq_mshr_misses::cpu2.inst          169                       # number of ReadReq MSHR misses
system.l2.ReadReq_mshr_misses::cpu2.data        36788                       # number of ReadReq MSHR misses
system.l2.ReadReq_mshr_misses::cpu3.inst           86                       # number of ReadReq MSHR misses
system.l2.ReadReq_mshr_misses::cpu3.data        36763                       # number of ReadReq MSHR misses
system.l2.ReadReq_mshr_misses::total           151371                       # number of ReadReq MSHR misses
system.l2.UpgradeReq_mshr_misses::cpu0.data            6                       # number of UpgradeReq MSHR misses
system.l2.UpgradeReq_mshr_misses::cpu1.data            1                       # number of UpgradeReq MSHR misses
system.l2.UpgradeReq_mshr_misses::cpu2.data            1                       # number of UpgradeReq MSHR misses
system.l2.UpgradeReq_mshr_misses::total             8                       # number of UpgradeReq MSHR misses
system.l2.SCUpgradeReq_mshr_misses::cpu0.data            2                       # number of SCUpgradeReq MSHR misses
system.l2.SCUpgradeReq_mshr_misses::cpu1.data            1                       # number of SCUpgradeReq MSHR misses
system.l2.SCUpgradeReq_mshr_misses::cpu3.data            1                       # number of SCUpgradeReq MSHR misses
system.l2.SCUpgradeReq_mshr_misses::total            4                       # number of SCUpgradeReq MSHR misses
system.l2.ReadExReq_mshr_misses::cpu0.data        47495                       # number of ReadExReq MSHR misses
system.l2.ReadExReq_mshr_misses::cpu1.data        12378                       # number of ReadExReq MSHR misses
system.l2.ReadExReq_mshr_misses::cpu2.data        12376                       # number of ReadExReq MSHR misses
system.l2.ReadExReq_mshr_misses::cpu3.data        12381                       # number of ReadExReq MSHR misses
system.l2.ReadExReq_mshr_misses::total          84630                       # number of ReadExReq MSHR misses
system.l2.demand_mshr_misses::cpu0.inst          2477                       # number of demand (read+write) MSHR misses
system.l2.demand_mshr_misses::cpu0.data         85388                       # number of demand (read+write) MSHR misses
system.l2.demand_mshr_misses::cpu1.inst           325                       # number of demand (read+write) MSHR misses
system.l2.demand_mshr_misses::cpu1.data         49248                       # number of demand (read+write) MSHR misses
system.l2.demand_mshr_misses::cpu2.inst           169                       # number of demand (read+write) MSHR misses
system.l2.demand_mshr_misses::cpu2.data         49164                       # number of demand (read+write) MSHR misses
system.l2.demand_mshr_misses::cpu3.inst            86                       # number of demand (read+write) MSHR misses
system.l2.demand_mshr_misses::cpu3.data         49144                       # number of demand (read+write) MSHR misses
system.l2.demand_mshr_misses::total            236001                       # number of demand (read+write) MSHR misses
system.l2.overall_mshr_misses::cpu0.inst         2477                       # number of overall MSHR misses
system.l2.overall_mshr_misses::cpu0.data        85388                       # number of overall MSHR misses
system.l2.overall_mshr_misses::cpu1.inst          325                       # number of overall MSHR misses
system.l2.overall_mshr_misses::cpu1.data        49248                       # number of overall MSHR misses
system.l2.overall_mshr_misses::cpu2.inst          169                       # number of overall MSHR misses
system.l2.overall_mshr_misses::cpu2.data        49164                       # number of overall MSHR misses
system.l2.overall_mshr_misses::cpu3.inst           86                       # number of overall MSHR misses
system.l2.overall_mshr_misses::cpu3.data        49144                       # number of overall MSHR misses
system.l2.overall_mshr_misses::total           236001                       # number of overall MSHR misses
system.l2.ReadReq_mshr_miss_latency::cpu0.inst     99222000                       # number of ReadReq MSHR miss cycles
system.l2.ReadReq_mshr_miss_latency::cpu0.data   1548070000                       # number of ReadReq MSHR miss cycles
system.l2.ReadReq_mshr_miss_latency::cpu1.inst     13069000                       # number of ReadReq MSHR miss cycles
system.l2.ReadReq_mshr_miss_latency::cpu1.data   1508324000                       # number of ReadReq MSHR miss cycles
system.l2.ReadReq_mshr_miss_latency::cpu2.inst      6841000                       # number of ReadReq MSHR miss cycles
system.l2.ReadReq_mshr_miss_latency::cpu2.data   1503298000                       # number of ReadReq MSHR miss cycles
system.l2.ReadReq_mshr_miss_latency::cpu3.inst      3488000                       # number of ReadReq MSHR miss cycles
system.l2.ReadReq_mshr_miss_latency::cpu3.data   1503354000                       # number of ReadReq MSHR miss cycles
system.l2.ReadReq_mshr_miss_latency::total   6185666000                       # number of ReadReq MSHR miss cycles
system.l2.UpgradeReq_mshr_miss_latency::cpu0.data       240000                       # number of UpgradeReq MSHR miss cycles
system.l2.UpgradeReq_mshr_miss_latency::cpu1.data        40000                       # number of UpgradeReq MSHR miss cycles
system.l2.UpgradeReq_mshr_miss_latency::cpu2.data        40000                       # number of UpgradeReq MSHR miss cycles
system.l2.UpgradeReq_mshr_miss_latency::total       320000                       # number of UpgradeReq MSHR miss cycles
system.l2.SCUpgradeReq_mshr_miss_latency::cpu0.data        80000                       # number of SCUpgradeReq MSHR miss cycles
system.l2.SCUpgradeReq_mshr_miss_latency::cpu1.data        42000                       # number of SCUpgradeReq MSHR miss cycles
system.l2.SCUpgradeReq_mshr_miss_latency::cpu3.data        40000                       # number of SCUpgradeReq MSHR miss cycles
system.l2.SCUpgradeReq_mshr_miss_latency::total       162000                       # number of SCUpgradeReq MSHR miss cycles
system.l2.ReadExReq_mshr_miss_latency::cpu0.data   1945833000                       # number of ReadExReq MSHR miss cycles
system.l2.ReadExReq_mshr_miss_latency::cpu1.data    527348000                       # number of ReadExReq MSHR miss cycles
system.l2.ReadExReq_mshr_miss_latency::cpu2.data    541217000                       # number of ReadExReq MSHR miss cycles
system.l2.ReadExReq_mshr_miss_latency::cpu3.data    545024000                       # number of ReadExReq MSHR miss cycles
system.l2.ReadExReq_mshr_miss_latency::total   3559422000                       # number of ReadExReq MSHR miss cycles
system.l2.demand_mshr_miss_latency::cpu0.inst     99222000                       # number of demand (read+write) MSHR miss cycles
system.l2.demand_mshr_miss_latency::cpu0.data   3493903000                       # number of demand (read+write) MSHR miss cycles
system.l2.demand_mshr_miss_latency::cpu1.inst     13069000                       # number of demand (read+write) MSHR miss cycles
system.l2.demand_mshr_miss_latency::cpu1.data   2035672000                       # number of demand (read+write) MSHR miss cycles
system.l2.demand_mshr_miss_latency::cpu2.inst      6841000                       # number of demand (read+write) MSHR miss cycles
system.l2.demand_mshr_miss_latency::cpu2.data   2044515000                       # number of demand (read+write) MSHR miss cycles
system.l2.demand_mshr_miss_latency::cpu3.inst      3488000                       # number of demand (read+write) MSHR miss cycles
system.l2.demand_mshr_miss_latency::cpu3.data   2048378000                       # number of demand (read+write) MSHR miss cycles
system.l2.demand_mshr_miss_latency::total   9745088000                       # number of demand (read+write) MSHR miss cycles
system.l2.overall_mshr_miss_latency::cpu0.inst     99222000                       # number of overall MSHR miss cycles
system.l2.overall_mshr_miss_latency::cpu0.data   3493903000                       # number of overall MSHR miss cycles
system.l2.overall_mshr_miss_latency::cpu1.inst     13069000                       # number of overall MSHR miss cycles
system.l2.overall_mshr_miss_latency::cpu1.data   2035672000                       # number of overall MSHR miss cycles
system.l2.overall_mshr_miss_latency::cpu2.inst      6841000                       # number of overall MSHR miss cycles
system.l2.overall_mshr_miss_latency::cpu2.data   2044515000                       # number of overall MSHR miss cycles
system.l2.overall_mshr_miss_latency::cpu3.inst      3488000                       # number of overall MSHR miss cycles
system.l2.overall_mshr_miss_latency::cpu3.data   2048378000                       # number of overall MSHR miss cycles
system.l2.overall_mshr_miss_latency::total   9745088000                       # number of overall MSHR miss cycles
system.l2.ReadReq_mshr_miss_rate::cpu0.inst     0.566430                       # mshr miss rate for ReadReq accesses
system.l2.ReadReq_mshr_miss_rate::cpu0.data     0.988341                       # mshr miss rate for ReadReq accesses
system.l2.ReadReq_mshr_miss_rate::cpu1.inst     0.438005                       # mshr miss rate for ReadReq accesses
system.l2.ReadReq_mshr_miss_rate::cpu1.data     0.989082                       # mshr miss rate for ReadReq accesses
system.l2.ReadReq_mshr_miss_rate::cpu2.inst     0.244573                       # mshr miss rate for ReadReq accesses
system.l2.ReadReq_mshr_miss_rate::cpu2.data     0.987518                       # mshr miss rate for ReadReq accesses
system.l2.ReadReq_mshr_miss_rate::cpu3.inst     0.170974                       # mshr miss rate for ReadReq accesses
system.l2.ReadReq_mshr_miss_rate::cpu3.data     0.987191                       # mshr miss rate for ReadReq accesses
system.l2.ReadReq_mshr_miss_rate::total      0.967728                       # mshr miss rate for ReadReq accesses
system.l2.UpgradeReq_mshr_miss_rate::cpu0.data     0.600000                       # mshr miss rate for UpgradeReq accesses
system.l2.UpgradeReq_mshr_miss_rate::cpu1.data     0.333333                       # mshr miss rate for UpgradeReq accesses
system.l2.UpgradeReq_mshr_miss_rate::cpu2.data     0.500000                       # mshr miss rate for UpgradeReq accesses
system.l2.UpgradeReq_mshr_miss_rate::total     0.500000                       # mshr miss rate for UpgradeReq accesses
system.l2.SCUpgradeReq_mshr_miss_rate::cpu0.data            1                       # mshr miss rate for SCUpgradeReq accesses
system.l2.SCUpgradeReq_mshr_miss_rate::cpu1.data            1                       # mshr miss rate for SCUpgradeReq accesses
system.l2.SCUpgradeReq_mshr_miss_rate::cpu3.data     0.250000                       # mshr miss rate for SCUpgradeReq accesses
system.l2.SCUpgradeReq_mshr_miss_rate::total     0.444444                       # mshr miss rate for SCUpgradeReq accesses
system.l2.ReadExReq_mshr_miss_rate::cpu0.data     0.999137                       # mshr miss rate for ReadExReq accesses
system.l2.ReadExReq_mshr_miss_rate::cpu1.data     0.997502                       # mshr miss rate for ReadExReq accesses
system.l2.ReadExReq_mshr_miss_rate::cpu2.data     0.998387                       # mshr miss rate for ReadExReq accesses
system.l2.ReadExReq_mshr_miss_rate::cpu3.data     0.999596                       # mshr miss rate for ReadExReq accesses
system.l2.ReadExReq_mshr_miss_rate::total     0.998855                       # mshr miss rate for ReadExReq accesses
system.l2.demand_mshr_miss_rate::cpu0.inst     0.566430                       # mshr miss rate for demand accesses
system.l2.demand_mshr_miss_rate::cpu0.data     0.994317                       # mshr miss rate for demand accesses
system.l2.demand_mshr_miss_rate::cpu1.inst     0.438005                       # mshr miss rate for demand accesses
system.l2.demand_mshr_miss_rate::cpu1.data     0.991185                       # mshr miss rate for demand accesses
system.l2.demand_mshr_miss_rate::cpu2.inst     0.244573                       # mshr miss rate for demand accesses
system.l2.demand_mshr_miss_rate::cpu2.data     0.990231                       # mshr miss rate for demand accesses
system.l2.demand_mshr_miss_rate::cpu3.inst     0.170974                       # mshr miss rate for demand accesses
system.l2.demand_mshr_miss_rate::cpu3.data     0.990287                       # mshr miss rate for demand accesses
system.l2.demand_mshr_miss_rate::total       0.978664                       # mshr miss rate for demand accesses
system.l2.overall_mshr_miss_rate::cpu0.inst     0.566430                       # mshr miss rate for overall accesses
system.l2.overall_mshr_miss_rate::cpu0.data     0.994317                       # mshr miss rate for overall accesses
system.l2.overall_mshr_miss_rate::cpu1.inst     0.438005                       # mshr miss rate for overall accesses
system.l2.overall_mshr_miss_rate::cpu1.data     0.991185                       # mshr miss rate for overall accesses
system.l2.overall_mshr_miss_rate::cpu2.inst     0.244573                       # mshr miss rate for overall accesses
system.l2.overall_mshr_miss_rate::cpu2.data     0.990231                       # mshr miss rate for overall accesses
system.l2.overall_mshr_miss_rate::cpu3.inst     0.170974                       # mshr miss rate for overall accesses
system.l2.overall_mshr_miss_rate::cpu3.data     0.990287                       # mshr miss rate for overall accesses
system.l2.overall_mshr_miss_rate::total      0.978664                       # mshr miss rate for overall accesses
system.l2.ReadReq_avg_mshr_miss_latency::cpu0.inst 40057.327412                       # average ReadReq mshr miss latency
system.l2.ReadReq_avg_mshr_miss_latency::cpu0.data 40853.719684                       # average ReadReq mshr miss latency
system.l2.ReadReq_avg_mshr_miss_latency::cpu1.inst 40212.307692                       # average ReadReq mshr miss latency
system.l2.ReadReq_avg_mshr_miss_latency::cpu1.data 40909.248712                       # average ReadReq mshr miss latency
system.l2.ReadReq_avg_mshr_miss_latency::cpu2.inst 40479.289941                       # average ReadReq mshr miss latency
system.l2.ReadReq_avg_mshr_miss_latency::cpu2.data 40863.814287                       # average ReadReq mshr miss latency
system.l2.ReadReq_avg_mshr_miss_latency::cpu3.inst 40558.139535                       # average ReadReq mshr miss latency
system.l2.ReadReq_avg_mshr_miss_latency::cpu3.data 40893.126241                       # average ReadReq mshr miss latency
system.l2.ReadReq_avg_mshr_miss_latency::total 40864.273870                       # average ReadReq mshr miss latency
system.l2.UpgradeReq_avg_mshr_miss_latency::cpu0.data        40000                       # average UpgradeReq mshr miss latency
system.l2.UpgradeReq_avg_mshr_miss_latency::cpu1.data        40000                       # average UpgradeReq mshr miss latency
system.l2.UpgradeReq_avg_mshr_miss_latency::cpu2.data        40000                       # average UpgradeReq mshr miss latency
system.l2.UpgradeReq_avg_mshr_miss_latency::total        40000                       # average UpgradeReq mshr miss latency
system.l2.SCUpgradeReq_avg_mshr_miss_latency::cpu0.data        40000                       # average SCUpgradeReq mshr miss latency
system.l2.SCUpgradeReq_avg_mshr_miss_latency::cpu1.data        42000                       # average SCUpgradeReq mshr miss latency
system.l2.SCUpgradeReq_avg_mshr_miss_latency::cpu3.data        40000                       # average SCUpgradeReq mshr miss latency
system.l2.SCUpgradeReq_avg_mshr_miss_latency::total        40500                       # average SCUpgradeReq mshr miss latency
system.l2.ReadExReq_avg_mshr_miss_latency::cpu0.data 40969.217812                       # average ReadExReq mshr miss latency
system.l2.ReadExReq_avg_mshr_miss_latency::cpu1.data 42603.651640                       # average ReadExReq mshr miss latency
system.l2.ReadExReq_avg_mshr_miss_latency::cpu2.data 43731.173239                       # average ReadExReq mshr miss latency
system.l2.ReadExReq_avg_mshr_miss_latency::cpu3.data 44020.999919                       # average ReadExReq mshr miss latency
system.l2.ReadExReq_avg_mshr_miss_latency::total 42058.631691                       # average ReadExReq mshr miss latency
system.l2.demand_avg_mshr_miss_latency::cpu0.inst 40057.327412                       # average overall mshr miss latency
system.l2.demand_avg_mshr_miss_latency::cpu0.data 40917.962711                       # average overall mshr miss latency
system.l2.demand_avg_mshr_miss_latency::cpu1.inst 40212.307692                       # average overall mshr miss latency
system.l2.demand_avg_mshr_miss_latency::cpu1.data 41335.120208                       # average overall mshr miss latency
system.l2.demand_avg_mshr_miss_latency::cpu2.inst 40479.289941                       # average overall mshr miss latency
system.l2.demand_avg_mshr_miss_latency::cpu2.data 41585.611423                       # average overall mshr miss latency
system.l2.demand_avg_mshr_miss_latency::cpu3.inst 40558.139535                       # average overall mshr miss latency
system.l2.demand_avg_mshr_miss_latency::cpu3.data 41681.141136                       # average overall mshr miss latency
system.l2.demand_avg_mshr_miss_latency::total 41292.570794                       # average overall mshr miss latency
system.l2.overall_avg_mshr_miss_latency::cpu0.inst 40057.327412                       # average overall mshr miss latency
system.l2.overall_avg_mshr_miss_latency::cpu0.data 40917.962711                       # average overall mshr miss latency
system.l2.overall_avg_mshr_miss_latency::cpu1.inst 40212.307692                       # average overall mshr miss latency
system.l2.overall_avg_mshr_miss_latency::cpu1.data 41335.120208                       # average overall mshr miss latency
system.l2.overall_avg_mshr_miss_latency::cpu2.inst 40479.289941                       # average overall mshr miss latency
system.l2.overall_avg_mshr_miss_latency::cpu2.data 41585.611423                       # average overall mshr miss latency
system.l2.overall_avg_mshr_miss_latency::cpu3.inst 40558.139535                       # average overall mshr miss latency
system.l2.overall_avg_mshr_miss_latency::cpu3.data 41681.141136                       # average overall mshr miss latency
system.l2.overall_avg_mshr_miss_latency::total 41292.570794                       # average overall mshr miss latency
system.l2.no_allocate_misses                        0                       # Number of misses that were no-allocate
system.cpu0.dtb.fetch_hits                          0                       # ITB hits
system.cpu0.dtb.fetch_misses                        0                       # ITB misses
system.cpu0.dtb.fetch_acv                           0                       # ITB acv
system.cpu0.dtb.fetch_accesses                      0                       # ITB accesses
system.cpu0.dtb.read_hits                     7334355                       # DTB read hits
system.cpu0.dtb.read_misses                      9652                       # DTB read misses
system.cpu0.dtb.read_acv                            1                       # DTB read access violations
system.cpu0.dtb.read_accesses                 7344007                       # DTB read accesses
system.cpu0.dtb.write_hits                    3534081                       # DTB write hits
system.cpu0.dtb.write_misses                     4411                       # DTB write misses
system.cpu0.dtb.write_acv                           0                       # DTB write access violations
system.cpu0.dtb.write_accesses                3538492                       # DTB write accesses
system.cpu0.dtb.data_hits                    10868436                       # DTB hits
system.cpu0.dtb.data_misses                     14063                       # DTB misses
system.cpu0.dtb.data_acv                            1                       # DTB access violations
system.cpu0.dtb.data_accesses                10882499                       # DTB accesses
system.cpu0.itb.fetch_hits                    4790091                       # ITB hits
system.cpu0.itb.fetch_misses                      261                       # ITB misses
system.cpu0.itb.fetch_acv                           0                       # ITB acv
system.cpu0.itb.fetch_accesses                4790352                       # ITB accesses
system.cpu0.itb.read_hits                           0                       # DTB read hits
system.cpu0.itb.read_misses                         0                       # DTB read misses
system.cpu0.itb.read_acv                            0                       # DTB read access violations
system.cpu0.itb.read_accesses                       0                       # DTB read accesses
system.cpu0.itb.write_hits                          0                       # DTB write hits
system.cpu0.itb.write_misses                        0                       # DTB write misses
system.cpu0.itb.write_acv                           0                       # DTB write access violations
system.cpu0.itb.write_accesses                      0                       # DTB write accesses
system.cpu0.itb.data_hits                           0                       # DTB hits
system.cpu0.itb.data_misses                         0                       # DTB misses
system.cpu0.itb.data_acv                            0                       # DTB access violations
system.cpu0.itb.data_accesses                       0                       # DTB accesses
system.cpu0.numCycles                        18666214                       # number of cpu cycles simulated
system.cpu0.numWorkItemsStarted                     0                       # number of work items this cpu started
system.cpu0.numWorkItemsCompleted                   0                       # number of work items this cpu completed
system.cpu0.BPredUnit.lookups                 3293705                       # Number of BP lookups
system.cpu0.BPredUnit.condPredicted           1559575                       # Number of conditional branches predicted
system.cpu0.BPredUnit.condIncorrect             17501                       # Number of conditional branches incorrect
system.cpu0.BPredUnit.BTBLookups              2139987                       # Number of BTB lookups
system.cpu0.BPredUnit.BTBHits                 1897834                       # Number of BTB hits
system.cpu0.BPredUnit.BTBCorrect                    0                       # Number of correct BTB predictions (this stat may not work properly.
system.cpu0.BPredUnit.usedRAS                  863290                       # Number of times the RAS was used to get a target.
system.cpu0.BPredUnit.RASInCorrect                669                       # Number of incorrect RAS predictions.
system.cpu0.fetch.icacheStallCycles             77292                       # Number of cycles fetch is stalled on an Icache miss
system.cpu0.fetch.Insts                      42134773                       # Number of instructions fetch has processed
system.cpu0.fetch.Branches                    3293705                       # Number of branches that fetch encountered
system.cpu0.fetch.predictedBranches           2761124                       # Number of branches that fetch has predicted taken
system.cpu0.fetch.Cycles                      6973974                       # Number of cycles fetch has run and was not squashing or blocked
system.cpu0.fetch.SquashCycles                 120974                       # Number of cycles fetch has spent squashing
system.cpu0.fetch.BlockedCycles              11455449                       # Number of cycles fetch has spent blocked
system.cpu0.fetch.MiscStallCycles                 108                       # Number of cycles fetch has spent waiting on interrupts, or bad addresses, or out of MSHRs
system.cpu0.fetch.PendingTrapStallCycles         4004                       # Number of stall cycles due to pending traps
system.cpu0.fetch.CacheLines                  4790091                       # Number of cache lines fetched
system.cpu0.fetch.IcacheSquashes                 2704                       # Number of outstanding Icache misses that were squashed
system.cpu0.fetch.rateDist::samples          18610702                       # Number of instructions fetched each cycle (Total)
system.cpu0.fetch.rateDist::mean             2.264008                       # Number of instructions fetched each cycle (Total)
system.cpu0.fetch.rateDist::stdev            3.240615                       # Number of instructions fetched each cycle (Total)
system.cpu0.fetch.rateDist::underflows              0      0.00%      0.00% # Number of instructions fetched each cycle (Total)
system.cpu0.fetch.rateDist::0                11636728     62.53%     62.53% # Number of instructions fetched each cycle (Total)
system.cpu0.fetch.rateDist::1                  395653      2.13%     64.65% # Number of instructions fetched each cycle (Total)
system.cpu0.fetch.rateDist::2                  290018      1.56%     66.21% # Number of instructions fetched each cycle (Total)
system.cpu0.fetch.rateDist::3                  252325      1.36%     67.57% # Number of instructions fetched each cycle (Total)
system.cpu0.fetch.rateDist::4                 1275955      6.86%     74.42% # Number of instructions fetched each cycle (Total)
system.cpu0.fetch.rateDist::5                  422171      2.27%     76.69% # Number of instructions fetched each cycle (Total)
system.cpu0.fetch.rateDist::6                  573652      3.08%     79.77% # Number of instructions fetched each cycle (Total)
system.cpu0.fetch.rateDist::7                  368078      1.98%     81.75% # Number of instructions fetched each cycle (Total)
system.cpu0.fetch.rateDist::8                 3396122     18.25%    100.00% # Number of instructions fetched each cycle (Total)
system.cpu0.fetch.rateDist::overflows               0      0.00%    100.00% # Number of instructions fetched each cycle (Total)
system.cpu0.fetch.rateDist::min_value               0                       # Number of instructions fetched each cycle (Total)
system.cpu0.fetch.rateDist::max_value               8                       # Number of instructions fetched each cycle (Total)
system.cpu0.fetch.rateDist::total            18610702                       # Number of instructions fetched each cycle (Total)
system.cpu0.fetch.branchRate                 0.176453                       # Number of branch fetches per cycle
system.cpu0.fetch.rate                       2.257275                       # Number of inst fetches per cycle
system.cpu0.decode.IdleCycles                  971697                       # Number of cycles decode is idle
system.cpu0.decode.BlockedCycles             10582577                       # Number of cycles decode is blocked
system.cpu0.decode.RunCycles                  6114725                       # Number of cycles decode is running
system.cpu0.decode.UnblockCycles               843316                       # Number of cycles decode is unblocking
system.cpu0.decode.SquashCycles                 98387                       # Number of cycles decode is squashing
system.cpu0.decode.BranchResolved              736624                       # Number of times decode resolved a branch
system.cpu0.decode.BranchMispred                 1532                       # Number of times decode detected a branch misprediction
system.cpu0.decode.DecodedInsts              42031447                       # Number of instructions handled by decode
system.cpu0.decode.SquashedInsts                 6649                       # Number of squashed instructions handled by decode
system.cpu0.rename.SquashCycles                 98387                       # Number of cycles rename is squashing
system.cpu0.rename.IdleCycles                 1727869                       # Number of cycles rename is idle
system.cpu0.rename.BlockCycles                1370649                       # Number of cycles rename is blocking
system.cpu0.rename.serializeStallCycles       7146682                       # count of cycles rename stalled for serializing inst
system.cpu0.rename.RunCycles                  6190435                       # Number of cycles rename is running
system.cpu0.rename.UnblockCycles              2076680                       # Number of cycles rename is unblocking
system.cpu0.rename.RenamedInsts              41935513                       # Number of instructions processed by rename
system.cpu0.rename.ROBFullEvents                14770                       # Number of times rename has blocked due to ROB full
system.cpu0.rename.IQFullEvents                 98826                       # Number of times rename has blocked due to IQ full
system.cpu0.rename.LSQFullEvents              1297289                       # Number of times rename has blocked due to LSQ full
system.cpu0.rename.RenamedOperands           32947524                       # Number of destination operands rename has renamed
system.cpu0.rename.RenameLookups             55964529                       # Number of register rename lookups that rename has made
system.cpu0.rename.int_rename_lookups        38206555                       # Number of integer rename lookups
system.cpu0.rename.fp_rename_lookups         17757974                       # Number of floating rename lookups
system.cpu0.rename.CommittedMaps             32291574                       # Number of HB maps that are committed
system.cpu0.rename.UndoneMaps                  655950                       # Number of HB maps that are undone due to squashing
system.cpu0.rename.serializingInsts            132398                       # count of serializing insts renamed
system.cpu0.rename.tempSerializingInsts           908                       # count of temporary serializing insts renamed
system.cpu0.rename.skidInsts                  8571221                       # count of insts added to the skid buffer
system.cpu0.memDep0.insertedLoads             7381023                       # Number of loads inserted to the mem dependence unit.
system.cpu0.memDep0.insertedStores            3583134                       # Number of stores inserted to the mem dependence unit.
system.cpu0.memDep0.conflictingLoads          1422387                       # Number of conflicting loads.
system.cpu0.memDep0.conflictingStores          283612                       # Number of conflicting stores.
system.cpu0.iq.iqInstsAdded                  39070509                       # Number of instructions added to the IQ (excludes non-spec)
system.cpu0.iq.iqNonSpecInstsAdded               1430                       # Number of non-speculative instructions added to the IQ
system.cpu0.iq.iqInstsIssued                 38854465                       # Number of instructions issued
system.cpu0.iq.iqSquashedInstsIssued            28089                       # Number of squashed instructions issued
system.cpu0.iq.iqSquashedInstsExamined         716800                       # Number of squashed instructions iterated over during squash; mainly for profiling
system.cpu0.iq.iqSquashedOperandsExamined       410421                       # Number of squashed operands that are examined and possibly removed from graph
system.cpu0.iq.iqSquashedNonSpecRemoved           277                       # Number of squashed non-spec instructions that were removed
system.cpu0.iq.issued_per_cycle::samples     18610702                       # Number of insts issued each cycle
system.cpu0.iq.issued_per_cycle::mean        2.087748                       # Number of insts issued each cycle
system.cpu0.iq.issued_per_cycle::stdev       1.915957                       # Number of insts issued each cycle
system.cpu0.iq.issued_per_cycle::underflows            0      0.00%      0.00% # Number of insts issued each cycle
system.cpu0.iq.issued_per_cycle::0            5527121     29.70%     29.70% # Number of insts issued each cycle
system.cpu0.iq.issued_per_cycle::1            2743884     14.74%     44.44% # Number of insts issued each cycle
system.cpu0.iq.issued_per_cycle::2            3035555     16.31%     60.75% # Number of insts issued each cycle
system.cpu0.iq.issued_per_cycle::3            2897621     15.57%     76.32% # Number of insts issued each cycle
system.cpu0.iq.issued_per_cycle::4            2299413     12.36%     88.68% # Number of insts issued each cycle
system.cpu0.iq.issued_per_cycle::5            1050218      5.64%     94.32% # Number of insts issued each cycle
system.cpu0.iq.issued_per_cycle::6             571649      3.07%     97.39% # Number of insts issued each cycle
system.cpu0.iq.issued_per_cycle::7             413956      2.22%     99.62% # Number of insts issued each cycle
system.cpu0.iq.issued_per_cycle::8              71285      0.38%    100.00% # Number of insts issued each cycle
system.cpu0.iq.issued_per_cycle::overflows            0      0.00%    100.00% # Number of insts issued each cycle
system.cpu0.iq.issued_per_cycle::min_value            0                       # Number of insts issued each cycle
system.cpu0.iq.issued_per_cycle::max_value            8                       # Number of insts issued each cycle
system.cpu0.iq.issued_per_cycle::total       18610702                       # Number of insts issued each cycle
system.cpu0.iq.fu_full::No_OpClass                  0      0.00%      0.00% # attempts to use FU when none available
system.cpu0.iq.fu_full::IntAlu                  64764      8.86%      8.86% # attempts to use FU when none available
system.cpu0.iq.fu_full::IntMult                262149     35.84%     44.70% # attempts to use FU when none available
system.cpu0.iq.fu_full::IntDiv                      0      0.00%     44.70% # attempts to use FU when none available
system.cpu0.iq.fu_full::FloatAdd                 4392      0.60%     45.30% # attempts to use FU when none available
system.cpu0.iq.fu_full::FloatCmp                    0      0.00%     45.30% # attempts to use FU when none available
system.cpu0.iq.fu_full::FloatCvt                    0      0.00%     45.30% # attempts to use FU when none available
system.cpu0.iq.fu_full::FloatMult              292449     39.99%     85.29% # attempts to use FU when none available
system.cpu0.iq.fu_full::FloatDiv                    0      0.00%     85.29% # attempts to use FU when none available
system.cpu0.iq.fu_full::FloatSqrt                   0      0.00%     85.29% # attempts to use FU when none available
system.cpu0.iq.fu_full::SimdAdd                     0      0.00%     85.29% # attempts to use FU when none available
system.cpu0.iq.fu_full::SimdAddAcc                  0      0.00%     85.29% # attempts to use FU when none available
system.cpu0.iq.fu_full::SimdAlu                     0      0.00%     85.29% # attempts to use FU when none available
system.cpu0.iq.fu_full::SimdCmp                     0      0.00%     85.29% # attempts to use FU when none available
system.cpu0.iq.fu_full::SimdCvt                     0      0.00%     85.29% # attempts to use FU when none available
system.cpu0.iq.fu_full::SimdMisc                    0      0.00%     85.29% # attempts to use FU when none available
system.cpu0.iq.fu_full::SimdMult                    0      0.00%     85.29% # attempts to use FU when none available
system.cpu0.iq.fu_full::SimdMultAcc                 0      0.00%     85.29% # attempts to use FU when none available
system.cpu0.iq.fu_full::SimdShift                   0      0.00%     85.29% # attempts to use FU when none available
system.cpu0.iq.fu_full::SimdShiftAcc                0      0.00%     85.29% # attempts to use FU when none available
system.cpu0.iq.fu_full::SimdSqrt                    0      0.00%     85.29% # attempts to use FU when none available
system.cpu0.iq.fu_full::SimdFloatAdd                0      0.00%     85.29% # attempts to use FU when none available
system.cpu0.iq.fu_full::SimdFloatAlu                0      0.00%     85.29% # attempts to use FU when none available
system.cpu0.iq.fu_full::SimdFloatCmp                0      0.00%     85.29% # attempts to use FU when none available
system.cpu0.iq.fu_full::SimdFloatCvt                0      0.00%     85.29% # attempts to use FU when none available
system.cpu0.iq.fu_full::SimdFloatDiv                0      0.00%     85.29% # attempts to use FU when none available
system.cpu0.iq.fu_full::SimdFloatMisc               0      0.00%     85.29% # attempts to use FU when none available
system.cpu0.iq.fu_full::SimdFloatMult               0      0.00%     85.29% # attempts to use FU when none available
system.cpu0.iq.fu_full::SimdFloatMultAcc            0      0.00%     85.29% # attempts to use FU when none available
system.cpu0.iq.fu_full::SimdFloatSqrt               0      0.00%     85.29% # attempts to use FU when none available
system.cpu0.iq.fu_full::MemRead                 92915     12.70%     97.99% # attempts to use FU when none available
system.cpu0.iq.fu_full::MemWrite                14682      2.01%    100.00% # attempts to use FU when none available
system.cpu0.iq.fu_full::IprAccess                   0      0.00%    100.00% # attempts to use FU when none available
system.cpu0.iq.fu_full::InstPrefetch                0      0.00%    100.00% # attempts to use FU when none available
system.cpu0.iq.FU_type_0::No_OpClass                0      0.00%      0.00% # Type of FU issued
system.cpu0.iq.FU_type_0::IntAlu             21091875     54.28%     54.28% # Type of FU issued
system.cpu0.iq.FU_type_0::IntMult              787048      2.03%     56.31% # Type of FU issued
system.cpu0.iq.FU_type_0::IntDiv                    0      0.00%     56.31% # Type of FU issued
system.cpu0.iq.FU_type_0::FloatAdd            3048471      7.85%     64.16% # Type of FU issued
system.cpu0.iq.FU_type_0::FloatCmp                 14      0.00%     64.16% # Type of FU issued
system.cpu0.iq.FU_type_0::FloatCvt                  0      0.00%     64.16% # Type of FU issued
system.cpu0.iq.FU_type_0::FloatMult           3028379      7.79%     71.95% # Type of FU issued
system.cpu0.iq.FU_type_0::FloatDiv                 90      0.00%     71.95% # Type of FU issued
system.cpu0.iq.FU_type_0::FloatSqrt                 0      0.00%     71.95% # Type of FU issued
[...]
system.cpu3.icache.overall_mshr_miss_latency::total     10227000                       # number of overall MSHR miss cycles
system.cpu3.icache.ReadReq_mshr_miss_rate::cpu3.inst     0.000712                       # mshr miss rate for ReadReq accesses
system.cpu3.icache.ReadReq_mshr_miss_rate::total     0.000712                       # mshr miss rate for ReadReq accesses
system.cpu3.icache.demand_mshr_miss_rate::cpu3.inst     0.000712                       # mshr miss rate for demand accesses
system.cpu3.icache.demand_mshr_miss_rate::total     0.000712                       # mshr miss rate for demand accesses
system.cpu3.icache.overall_mshr_miss_rate::cpu3.inst     0.000712                       # mshr miss rate for overall accesses
system.cpu3.icache.overall_mshr_miss_rate::total     0.000712                       # mshr miss rate for overall accesses
system.cpu3.icache.ReadReq_avg_mshr_miss_latency::cpu3.inst 20332.007952                       # average ReadReq mshr miss latency
system.cpu3.icache.ReadReq_avg_mshr_miss_latency::total 20332.007952                       # average ReadReq mshr miss latency
system.cpu3.icache.demand_avg_mshr_miss_latency::cpu3.inst 20332.007952                       # average overall mshr miss latency
system.cpu3.icache.demand_avg_mshr_miss_latency::total 20332.007952                       # average overall mshr miss latency
system.cpu3.icache.overall_avg_mshr_miss_latency::cpu3.inst 20332.007952                       # average overall mshr miss latency
system.cpu3.icache.overall_avg_mshr_miss_latency::total 20332.007952                       # average overall mshr miss latency
system.cpu3.icache.no_allocate_misses               0                       # Number of misses that were no-allocate
system.cpu3.dcache.replacements                 48642                       # number of replacements
system.cpu3.dcache.tagsinuse               177.911135                       # Cycle average of tags in use
system.cpu3.dcache.total_refs                 1655636                       # Total number of references to valid blocks.
system.cpu3.dcache.sampled_refs                 49659                       # Sample count of references to valid blocks.
system.cpu3.dcache.avg_refs                 33.340099                       # Average number of references to valid blocks.
system.cpu3.dcache.warmup_cycle           15483592000                       # Cycle when the warmup percentage was hit.
system.cpu3.dcache.occ_blocks::cpu3.data   177.911135                       # Average occupied blocks per requestor
system.cpu3.dcache.occ_percent::cpu3.data     0.173741                       # Average percentage of cache occupancy
system.cpu3.dcache.occ_percent::total        0.173741                       # Average percentage of cache occupancy
system.cpu3.dcache.ReadReq_hits::cpu3.data       929921                       # number of ReadReq hits
system.cpu3.dcache.ReadReq_hits::total         929921                       # number of ReadReq hits
system.cpu3.dcache.WriteReq_hits::cpu3.data       725656                       # number of WriteReq hits
system.cpu3.dcache.WriteReq_hits::total        725656                       # number of WriteReq hits
system.cpu3.dcache.LoadLockedReq_hits::cpu3.data           21                       # number of LoadLockedReq hits
system.cpu3.dcache.LoadLockedReq_hits::total           21                       # number of LoadLockedReq hits
system.cpu3.dcache.StoreCondReq_hits::cpu3.data           15                       # number of StoreCondReq hits
system.cpu3.dcache.StoreCondReq_hits::total           15                       # number of StoreCondReq hits
system.cpu3.dcache.demand_hits::cpu3.data      1655577                       # number of demand (read+write) hits
system.cpu3.dcache.demand_hits::total         1655577                       # number of demand (read+write) hits
system.cpu3.dcache.overall_hits::cpu3.data      1655577                       # number of overall hits
system.cpu3.dcache.overall_hits::total        1655577                       # number of overall hits
system.cpu3.dcache.ReadReq_misses::cpu3.data       213926                       # number of ReadReq misses
system.cpu3.dcache.ReadReq_misses::total       213926                       # number of ReadReq misses
system.cpu3.dcache.WriteReq_misses::cpu3.data        25246                       # number of WriteReq misses
system.cpu3.dcache.WriteReq_misses::total        25246                       # number of WriteReq misses
system.cpu3.dcache.LoadLockedReq_misses::cpu3.data            7                       # number of LoadLockedReq misses
system.cpu3.dcache.LoadLockedReq_misses::total            7                       # number of LoadLockedReq misses
system.cpu3.dcache.StoreCondReq_misses::cpu3.data           10                       # number of StoreCondReq misses
system.cpu3.dcache.StoreCondReq_misses::total           10                       # number of StoreCondReq misses
system.cpu3.dcache.demand_misses::cpu3.data       239172                       # number of demand (read+write) misses
system.cpu3.dcache.demand_misses::total        239172                       # number of demand (read+write) misses
system.cpu3.dcache.overall_misses::cpu3.data       239172                       # number of overall misses
system.cpu3.dcache.overall_misses::total       239172                       # number of overall misses
system.cpu3.dcache.ReadReq_miss_latency::cpu3.data  11411864000                       # number of ReadReq miss cycles
system.cpu3.dcache.ReadReq_miss_latency::total  11411864000                       # number of ReadReq miss cycles
system.cpu3.dcache.WriteReq_miss_latency::cpu3.data   1524037270                       # number of WriteReq miss cycles
system.cpu3.dcache.WriteReq_miss_latency::total   1524037270                       # number of WriteReq miss cycles
system.cpu3.dcache.LoadLockedReq_miss_latency::cpu3.data       141000                       # number of LoadLockedReq miss cycles
system.cpu3.dcache.LoadLockedReq_miss_latency::total       141000                       # number of LoadLockedReq miss cycles
system.cpu3.dcache.StoreCondReq_miss_latency::cpu3.data       132000                       # number of StoreCondReq miss cycles
system.cpu3.dcache.StoreCondReq_miss_latency::total       132000                       # number of StoreCondReq miss cycles
system.cpu3.dcache.demand_miss_latency::cpu3.data  12935901270                       # number of demand (read+write) miss cycles
system.cpu3.dcache.demand_miss_latency::total  12935901270                       # number of demand (read+write) miss cycles
system.cpu3.dcache.overall_miss_latency::cpu3.data  12935901270                       # number of overall miss cycles
system.cpu3.dcache.overall_miss_latency::total  12935901270                       # number of overall miss cycles
system.cpu3.dcache.ReadReq_accesses::cpu3.data      1143847                       # number of ReadReq accesses(hits+misses)
system.cpu3.dcache.ReadReq_accesses::total      1143847                       # number of ReadReq accesses(hits+misses)
system.cpu3.dcache.WriteReq_accesses::cpu3.data       750902                       # number of WriteReq accesses(hits+misses)
system.cpu3.dcache.WriteReq_accesses::total       750902                       # number of WriteReq accesses(hits+misses)
system.cpu3.dcache.LoadLockedReq_accesses::cpu3.data           28                       # number of LoadLockedReq accesses(hits+misses)
system.cpu3.dcache.LoadLockedReq_accesses::total           28                       # number of LoadLockedReq accesses(hits+misses)
system.cpu3.dcache.StoreCondReq_accesses::cpu3.data           25                       # number of StoreCondReq accesses(hits+misses)
system.cpu3.dcache.StoreCondReq_accesses::total           25                       # number of StoreCondReq accesses(hits+misses)
system.cpu3.dcache.demand_accesses::cpu3.data      1894749                       # number of demand (read+write) accesses
system.cpu3.dcache.demand_accesses::total      1894749                       # number of demand (read+write) accesses
system.cpu3.dcache.overall_accesses::cpu3.data      1894749                       # number of overall (read+write) accesses
system.cpu3.dcache.overall_accesses::total      1894749                       # number of overall (read+write) accesses
system.cpu3.dcache.ReadReq_miss_rate::cpu3.data     0.187023                       # miss rate for ReadReq accesses
system.cpu3.dcache.ReadReq_miss_rate::total     0.187023                       # miss rate for ReadReq accesses
system.cpu3.dcache.WriteReq_miss_rate::cpu3.data     0.033621                       # miss rate for WriteReq accesses
system.cpu3.dcache.WriteReq_miss_rate::total     0.033621                       # miss rate for WriteReq accesses
system.cpu3.dcache.LoadLockedReq_miss_rate::cpu3.data     0.250000                       # miss rate for LoadLockedReq accesses
system.cpu3.dcache.LoadLockedReq_miss_rate::total     0.250000                       # miss rate for LoadLockedReq accesses
system.cpu3.dcache.StoreCondReq_miss_rate::cpu3.data     0.400000                       # miss rate for StoreCondReq accesses
system.cpu3.dcache.StoreCondReq_miss_rate::total     0.400000                       # miss rate for StoreCondReq accesses
system.cpu3.dcache.demand_miss_rate::cpu3.data     0.126229                       # miss rate for demand accesses
system.cpu3.dcache.demand_miss_rate::total     0.126229                       # miss rate for demand accesses
system.cpu3.dcache.overall_miss_rate::cpu3.data     0.126229                       # miss rate for overall accesses
system.cpu3.dcache.overall_miss_rate::total     0.126229                       # miss rate for overall accesses
system.cpu3.dcache.ReadReq_avg_miss_latency::cpu3.data 53344.913662                       # average ReadReq miss latency
system.cpu3.dcache.ReadReq_avg_miss_latency::total 53344.913662                       # average ReadReq miss latency
system.cpu3.dcache.WriteReq_avg_miss_latency::cpu3.data 60367.474848                       # average WriteReq miss latency
system.cpu3.dcache.WriteReq_avg_miss_latency::total 60367.474848                       # average WriteReq miss latency
system.cpu3.dcache.LoadLockedReq_avg_miss_latency::cpu3.data 20142.857143                       # average LoadLockedReq miss latency
system.cpu3.dcache.LoadLockedReq_avg_miss_latency::total 20142.857143                       # average LoadLockedReq miss latency
system.cpu3.dcache.StoreCondReq_avg_miss_latency::cpu3.data        13200                       # average StoreCondReq miss latency
system.cpu3.dcache.StoreCondReq_avg_miss_latency::total        13200                       # average StoreCondReq miss latency
system.cpu3.dcache.demand_avg_miss_latency::cpu3.data 54086.185967                       # average overall miss latency
system.cpu3.dcache.demand_avg_miss_latency::total 54086.185967                       # average overall miss latency
system.cpu3.dcache.overall_avg_miss_latency::cpu3.data 54086.185967                       # average overall miss latency
system.cpu3.dcache.overall_avg_miss_latency::total 54086.185967                       # average overall miss latency
system.cpu3.dcache.blocked_cycles::no_mshrs      1228999                       # number of cycles access was blocked
system.cpu3.dcache.blocked_cycles::no_targets    945289997                       # number of cycles access was blocked
system.cpu3.dcache.blocked::no_mshrs               91                       # number of cycles access was blocked
system.cpu3.dcache.blocked::no_targets          20400                       # number of cycles access was blocked
system.cpu3.dcache.avg_blocked_cycles::no_mshrs 13505.483516                       # average number of cycles each access was blocked
system.cpu3.dcache.avg_blocked_cycles::no_targets 46337.744951                       # average number of cycles each access was blocked
system.cpu3.dcache.fast_writes                      0                       # number of fast writes performed
system.cpu3.dcache.cache_copies                     0                       # number of cache copies performed
system.cpu3.dcache.writebacks::writebacks        19952                       # number of writebacks
system.cpu3.dcache.writebacks::total            19952                       # number of writebacks
system.cpu3.dcache.ReadReq_mshr_hits::cpu3.data       176635                       # number of ReadReq MSHR hits
system.cpu3.dcache.ReadReq_mshr_hits::total       176635                       # number of ReadReq MSHR hits
system.cpu3.dcache.WriteReq_mshr_hits::cpu3.data        12824                       # number of WriteReq MSHR hits
system.cpu3.dcache.WriteReq_mshr_hits::total        12824                       # number of WriteReq MSHR hits
system.cpu3.dcache.LoadLockedReq_mshr_hits::cpu3.data            3                       # number of LoadLockedReq MSHR hits
system.cpu3.dcache.LoadLockedReq_mshr_hits::total            3                       # number of LoadLockedReq MSHR hits
system.cpu3.dcache.demand_mshr_hits::cpu3.data       189459                       # number of demand (read+write) MSHR hits
system.cpu3.dcache.demand_mshr_hits::total       189459                       # number of demand (read+write) MSHR hits
system.cpu3.dcache.overall_mshr_hits::cpu3.data       189459                       # number of overall MSHR hits
system.cpu3.dcache.overall_mshr_hits::total       189459                       # number of overall MSHR hits
system.cpu3.dcache.ReadReq_mshr_misses::cpu3.data        37291                       # number of ReadReq MSHR misses
system.cpu3.dcache.ReadReq_mshr_misses::total        37291                       # number of ReadReq MSHR misses
system.cpu3.dcache.WriteReq_mshr_misses::cpu3.data        12422                       # number of WriteReq MSHR misses
system.cpu3.dcache.WriteReq_mshr_misses::total        12422                       # number of WriteReq MSHR misses
system.cpu3.dcache.LoadLockedReq_mshr_misses::cpu3.data            4                       # number of LoadLockedReq MSHR misses
system.cpu3.dcache.LoadLockedReq_mshr_misses::total            4                       # number of LoadLockedReq MSHR misses
system.cpu3.dcache.StoreCondReq_mshr_misses::cpu3.data           10                       # number of StoreCondReq MSHR misses
system.cpu3.dcache.StoreCondReq_mshr_misses::total           10                       # number of StoreCondReq MSHR misses
system.cpu3.dcache.demand_mshr_misses::cpu3.data        49713                       # number of demand (read+write) MSHR misses
system.cpu3.dcache.demand_mshr_misses::total        49713                       # number of demand (read+write) MSHR misses
system.cpu3.dcache.overall_mshr_misses::cpu3.data        49713                       # number of overall MSHR misses
system.cpu3.dcache.overall_mshr_misses::total        49713                       # number of overall MSHR misses
system.cpu3.dcache.ReadReq_mshr_miss_latency::cpu3.data   2029300000                       # number of ReadReq MSHR miss cycles
system.cpu3.dcache.ReadReq_mshr_miss_latency::total   2029300000                       # number of ReadReq MSHR miss cycles
system.cpu3.dcache.WriteReq_mshr_miss_latency::cpu3.data    783947650                       # number of WriteReq MSHR miss cycles
system.cpu3.dcache.WriteReq_mshr_miss_latency::total    783947650                       # number of WriteReq MSHR miss cycles
system.cpu3.dcache.LoadLockedReq_mshr_miss_latency::cpu3.data         9000                       # number of LoadLockedReq MSHR miss cycles
system.cpu3.dcache.LoadLockedReq_mshr_miss_latency::total         9000                       # number of LoadLockedReq MSHR miss cycles
system.cpu3.dcache.StoreCondReq_mshr_miss_latency::cpu3.data       102000                       # number of StoreCondReq MSHR miss cycles
system.cpu3.dcache.StoreCondReq_mshr_miss_latency::total       102000                       # number of StoreCondReq MSHR miss cycles
system.cpu3.dcache.demand_mshr_miss_latency::cpu3.data   2813247650                       # number of demand (read+write) MSHR miss cycles
system.cpu3.dcache.demand_mshr_miss_latency::total   2813247650                       # number of demand (read+write) MSHR miss cycles
system.cpu3.dcache.overall_mshr_miss_latency::cpu3.data   2813247650                       # number of overall MSHR miss cycles
system.cpu3.dcache.overall_mshr_miss_latency::total   2813247650                       # number of overall MSHR miss cycles
system.cpu3.dcache.ReadReq_mshr_miss_rate::cpu3.data     0.032601                       # mshr miss rate for ReadReq accesses
system.cpu3.dcache.ReadReq_mshr_miss_rate::total     0.032601                       # mshr miss rate for ReadReq accesses
system.cpu3.dcache.WriteReq_mshr_miss_rate::cpu3.data     0.016543                       # mshr miss rate for WriteReq accesses
system.cpu3.dcache.WriteReq_mshr_miss_rate::total     0.016543                       # mshr miss rate for WriteReq accesses
system.cpu3.dcache.LoadLockedReq_mshr_miss_rate::cpu3.data     0.142857                       # mshr miss rate for LoadLockedReq accesses
system.cpu3.dcache.LoadLockedReq_mshr_miss_rate::total     0.142857                       # mshr miss rate for LoadLockedReq accesses
system.cpu3.dcache.StoreCondReq_mshr_miss_rate::cpu3.data     0.400000                       # mshr miss rate for StoreCondReq accesses
system.cpu3.dcache.StoreCondReq_mshr_miss_rate::total     0.400000                       # mshr miss rate for StoreCondReq accesses
system.cpu3.dcache.demand_mshr_miss_rate::cpu3.data     0.026237                       # mshr miss rate for demand accesses
system.cpu3.dcache.demand_mshr_miss_rate::total     0.026237                       # mshr miss rate for demand accesses
system.cpu3.dcache.overall_mshr_miss_rate::cpu3.data     0.026237                       # mshr miss rate for overall accesses
system.cpu3.dcache.overall_mshr_miss_rate::total     0.026237                       # mshr miss rate for overall accesses
system.cpu3.dcache.ReadReq_avg_mshr_miss_latency::cpu3.data 54417.956075                       # average ReadReq mshr miss latency
system.cpu3.dcache.ReadReq_avg_mshr_miss_latency::total 54417.956075                       # average ReadReq mshr miss latency
system.cpu3.dcache.WriteReq_avg_mshr_miss_latency::cpu3.data 63109.616004                       # average WriteReq mshr miss latency
system.cpu3.dcache.WriteReq_avg_mshr_miss_latency::total 63109.616004                       # average WriteReq mshr miss latency
system.cpu3.dcache.LoadLockedReq_avg_mshr_miss_latency::cpu3.data         2250                       # average LoadLockedReq mshr miss latency
system.cpu3.dcache.LoadLockedReq_avg_mshr_miss_latency::total         2250                       # average LoadLockedReq mshr miss latency
system.cpu3.dcache.StoreCondReq_avg_mshr_miss_latency::cpu3.data        10200                       # average StoreCondReq mshr miss latency
system.cpu3.dcache.StoreCondReq_avg_mshr_miss_latency::total        10200                       # average StoreCondReq mshr miss latency
system.cpu3.dcache.demand_avg_mshr_miss_latency::cpu3.data 56589.778328                       # average overall mshr miss latency
system.cpu3.dcache.demand_avg_mshr_miss_latency::total 56589.778328                       # average overall mshr miss latency
system.cpu3.dcache.overall_avg_mshr_miss_latency::cpu3.data 56589.778328                       # average overall mshr miss latency
system.cpu3.dcache.overall_avg_mshr_miss_latency::total 56589.778328                       # average overall mshr miss latency
system.cpu3.dcache.no_allocate_misses               0                       # Number of misses that were no-allocate

---------- End Simulation Statistics   ----------
