
---------- Begin Simulation Statistics ----------
sim_seconds                                  0.061664                       # Number of seconds simulated
sim_ticks                                 61664185000                       # Number of ticks simulated
final_tick                                61664185000                       # Number of ticks from beginning of simulation (restored from checkpoints and never reset)
sim_freq                                 1000000000000                       # Frequency of simulated ticks
host_inst_rate                                 141998                       # Simulator instruction rate (inst/s)
host_op_rate                                   141998                       # Simulator op (including micro ops) rate (op/s)
host_tick_rate                               14951545                       # Simulator tick rate (ticks/s)
host_mem_usage                                 371432                       # Number of bytes of host memory used
host_seconds                                  4124.27                       # Real time elapsed on the host
sim_insts                                   585639330                       # Number of instructions simulated
sim_ops                                     585639330                       # Number of ops (including micro ops) simulated
system.physmem.bytes_read::cpu0.inst           213888                       # Number of bytes read from this memory
system.physmem.bytes_read::cpu0.data          1204352                       # Number of bytes read from this memory
system.physmem.bytes_read::cpu1.inst            20160                       # Number of bytes read from this memory
system.physmem.bytes_read::cpu1.data           500480                       # Number of bytes read from this memory
system.physmem.bytes_read::cpu2.inst             3520                       # Number of bytes read from this memory
system.physmem.bytes_read::cpu2.data           522048                       # Number of bytes read from this memory
system.physmem.bytes_read::cpu3.inst             9984                       # Number of bytes read from this memory
system.physmem.bytes_read::cpu3.data           536000                       # Number of bytes read from this memory
system.physmem.bytes_read::total              3010432                       # Number of bytes read from this memory
system.physmem.bytes_inst_read::cpu0.inst       213888                       # Number of instructions bytes read from this memory
system.physmem.bytes_inst_read::cpu1.inst        20160                       # Number of instructions bytes read from this memory
system.physmem.bytes_inst_read::cpu2.inst         3520                       # Number of instructions bytes read from this memory
system.physmem.bytes_inst_read::cpu3.inst         9984                       # Number of instructions bytes read from this memory
system.physmem.bytes_inst_read::total          247552                       # Number of instructions bytes read from this memory
system.physmem.bytes_written::writebacks      1872192                       # Number of bytes written to this memory
system.physmem.bytes_written::total           1872192                       # Number of bytes written to this memory
system.physmem.num_reads::cpu0.inst              3342                       # Number of read requests responded to by this memory
system.physmem.num_reads::cpu0.data             18818                       # Number of read requests responded to by this memory
system.physmem.num_reads::cpu1.inst               315                       # Number of read requests responded to by this memory
system.physmem.num_reads::cpu1.data              7820                       # Number of read requests responded to by this memory
system.physmem.num_reads::cpu2.inst                55                       # Number of read requests responded to by this memory
system.physmem.num_reads::cpu2.data              8157                       # Number of read requests responded to by this memory
system.physmem.num_reads::cpu3.inst               156                       # Number of read requests responded to by this memory
system.physmem.num_reads::cpu3.data              8375                       # Number of read requests responded to by this memory
system.physmem.num_reads::total                 47038                       # Number of read requests responded to by this memory
system.physmem.num_writes::writebacks           29253                       # Number of write requests responded to by this memory
system.physmem.num_writes::total                29253                       # Number of write requests responded to by this memory
system.physmem.bw_read::cpu0.inst             3468594                       # Total read bandwidth from this memory (bytes/s)
system.physmem.bw_read::cpu0.data            19530818                       # Total read bandwidth from this memory (bytes/s)
system.physmem.bw_read::cpu1.inst              326932                       # Total read bandwidth from this memory (bytes/s)
system.physmem.bw_read::cpu1.data             8116219                       # Total read bandwidth from this memory (bytes/s)
system.physmem.bw_read::cpu2.inst               57083                       # Total read bandwidth from this memory (bytes/s)
system.physmem.bw_read::cpu2.data             8465984                       # Total read bandwidth from this memory (bytes/s)
system.physmem.bw_read::cpu3.inst              161909                       # Total read bandwidth from this memory (bytes/s)
system.physmem.bw_read::cpu3.data             8692242                       # Total read bandwidth from this memory (bytes/s)
system.physmem.bw_read::total                48819781                       # Total read bandwidth from this memory (bytes/s)
system.physmem.bw_inst_read::cpu0.inst        3468594                       # Instruction read bandwidth from this memory (bytes/s)
system.physmem.bw_inst_read::cpu1.inst         326932                       # Instruction read bandwidth from this memory (bytes/s)
system.physmem.bw_inst_read::cpu2.inst          57083                       # Instruction read bandwidth from this memory (bytes/s)
system.physmem.bw_inst_read::cpu3.inst         161909                       # Instruction read bandwidth from this memory (bytes/s)
system.physmem.bw_inst_read::total            4014518                       # Instruction read bandwidth from this memory (bytes/s)
system.physmem.bw_write::writebacks          30361092                       # Write bandwidth from this memory (bytes/s)
system.physmem.bw_write::total               30361092                       # Write bandwidth from this memory (bytes/s)
system.physmem.bw_total::writebacks          30361092                       # Total bandwidth to/from this memory (bytes/s)
system.physmem.bw_total::cpu0.inst            3468594                       # Total bandwidth to/from this memory (bytes/s)
system.physmem.bw_total::cpu0.data           19530818                       # Total bandwidth to/from this memory (bytes/s)
system.physmem.bw_total::cpu1.inst             326932                       # Total bandwidth to/from this memory (bytes/s)
system.physmem.bw_total::cpu1.data            8116219                       # Total bandwidth to/from this memory (bytes/s)
system.physmem.bw_total::cpu2.inst              57083                       # Total bandwidth to/from this memory (bytes/s)
system.physmem.bw_total::cpu2.data            8465984                       # Total bandwidth to/from this memory (bytes/s)
system.physmem.bw_total::cpu3.inst             161909                       # Total bandwidth to/from this memory (bytes/s)
system.physmem.bw_total::cpu3.data            8692242                       # Total bandwidth to/from this memory (bytes/s)
system.physmem.bw_total::total               79180873                       # Total bandwidth to/from this memory (bytes/s)
workload.num_syscalls                             808                       # Number of system calls
system.l2.replacements                          57408                       # number of replacements
system.l2.tagsinuse                       3773.465644                       # Cycle average of tags in use
system.l2.total_refs                           361999                       # Total number of references to valid blocks.
system.l2.sampled_refs                          61428                       # Sample count of references to valid blocks.
system.l2.avg_refs                           5.893062                       # Average number of references to valid blocks.
system.l2.warmup_cycle                              0                       # Cycle when the warmup percentage was hit.
system.l2.occ_blocks::writebacks          1767.745067                       # Average occupied blocks per requestor
system.l2.occ_blocks::cpu0.inst            102.837723                       # Average occupied blocks per requestor
system.l2.occ_blocks::cpu0.data            526.283774                       # Average occupied blocks per requestor
system.l2.occ_blocks::cpu1.inst             19.825631                       # Average occupied blocks per requestor
system.l2.occ_blocks::cpu1.data            423.865151                       # Average occupied blocks per requestor
system.l2.occ_blocks::cpu2.inst              4.435360                       # Average occupied blocks per requestor
system.l2.occ_blocks::cpu2.data            428.328716                       # Average occupied blocks per requestor
system.l2.occ_blocks::cpu3.inst             20.639242                       # Average occupied blocks per requestor
system.l2.occ_blocks::cpu3.data            479.504979                       # Average occupied blocks per requestor
system.l2.occ_percent::writebacks            0.431578                       # Average percentage of cache occupancy
system.l2.occ_percent::cpu0.inst             0.025107                       # Average percentage of cache occupancy
system.l2.occ_percent::cpu0.data             0.128487                       # Average percentage of cache occupancy
system.l2.occ_percent::cpu1.inst             0.004840                       # Average percentage of cache occupancy
system.l2.occ_percent::cpu1.data             0.103483                       # Average percentage of cache occupancy
system.l2.occ_percent::cpu2.inst             0.001083                       # Average percentage of cache occupancy
system.l2.occ_percent::cpu2.data             0.104572                       # Average percentage of cache occupancy
system.l2.occ_percent::cpu3.inst             0.005039                       # Average percentage of cache occupancy
system.l2.occ_percent::cpu3.data             0.117067                       # Average percentage of cache occupancy
system.l2.occ_percent::total                 0.921256                       # Average percentage of cache occupancy
system.l2.ReadReq_hits::cpu0.inst              123503                       # number of ReadReq hits
system.l2.ReadReq_hits::cpu0.data               50755                       # number of ReadReq hits
system.l2.ReadReq_hits::cpu1.inst                 244                       # number of ReadReq hits
system.l2.ReadReq_hits::cpu1.data               45106                       # number of ReadReq hits
system.l2.ReadReq_hits::cpu2.inst                 516                       # number of ReadReq hits
system.l2.ReadReq_hits::cpu2.data               45488                       # number of ReadReq hits
system.l2.ReadReq_hits::cpu3.inst                 461                       # number of ReadReq hits
system.l2.ReadReq_hits::cpu3.data               44331                       # number of ReadReq hits
system.l2.ReadReq_hits::total                  310404                       # number of ReadReq hits
system.l2.Writeback_hits::writebacks            77568                       # number of Writeback hits
system.l2.Writeback_hits::total                 77568                       # number of Writeback hits
system.l2.UpgradeReq_hits::cpu0.data              321                       # number of UpgradeReq hits
system.l2.UpgradeReq_hits::cpu1.data              294                       # number of UpgradeReq hits
system.l2.UpgradeReq_hits::cpu2.data              285                       # number of UpgradeReq hits
system.l2.UpgradeReq_hits::cpu3.data              279                       # number of UpgradeReq hits
system.l2.UpgradeReq_hits::total                 1179                       # number of UpgradeReq hits
system.l2.SCUpgradeReq_hits::cpu2.data              1                       # number of SCUpgradeReq hits
system.l2.SCUpgradeReq_hits::cpu3.data              3                       # number of SCUpgradeReq hits
system.l2.SCUpgradeReq_hits::total                  4                       # number of SCUpgradeReq hits
system.l2.ReadExReq_hits::cpu0.data               262                       # number of ReadExReq hits
system.l2.ReadExReq_hits::cpu1.data               187                       # number of ReadExReq hits
system.l2.ReadExReq_hits::cpu2.data               174                       # number of ReadExReq hits
system.l2.ReadExReq_hits::cpu3.data               163                       # number of ReadExReq hits
system.l2.ReadExReq_hits::total                   786                       # number of ReadExReq hits
system.l2.demand_hits::cpu0.inst               123503                       # number of demand (read+write) hits
system.l2.demand_hits::cpu0.data                51017                       # number of demand (read+write) hits
system.l2.demand_hits::cpu1.inst                  244                       # number of demand (read+write) hits
system.l2.demand_hits::cpu1.data                45293                       # number of demand (read+write) hits
system.l2.demand_hits::cpu2.inst                  516                       # number of demand (read+write) hits
system.l2.demand_hits::cpu2.data                45662                       # number of demand (read+write) hits
system.l2.demand_hits::cpu3.inst                  461                       # number of demand (read+write) hits
system.l2.demand_hits::cpu3.data                44494                       # number of demand (read+write) hits
system.l2.demand_hits::total                   311190                       # number of demand (read+write) hits
system.l2.overall_hits::cpu0.inst              123503                       # number of overall hits
system.l2.overall_hits::cpu0.data               51017                       # number of overall hits
system.l2.overall_hits::cpu1.inst                 244                       # number of overall hits
system.l2.overall_hits::cpu1.data               45293                       # number of overall hits
system.l2.overall_hits::cpu2.inst                 516                       # number of overall hits
system.l2.overall_hits::cpu2.data               45662                       # number of overall hits
system.l2.overall_hits::cpu3.inst                 461                       # number of overall hits
system.l2.overall_hits::cpu3.data               44494                       # number of overall hits
system.l2.overall_hits::total                  311190                       # number of overall hits
system.l2.ReadReq_misses::cpu0.inst              3417                       # number of ReadReq misses
system.l2.ReadReq_misses::cpu0.data              9974                       # number of ReadReq misses
system.l2.ReadReq_misses::cpu1.inst               393                       # number of ReadReq misses
system.l2.ReadReq_misses::cpu1.data              6978                       # number of ReadReq misses
system.l2.ReadReq_misses::cpu2.inst               112                       # number of ReadReq misses
system.l2.ReadReq_misses::cpu2.data              7290                       # number of ReadReq misses
system.l2.ReadReq_misses::cpu3.inst               206                       # number of ReadReq misses
system.l2.ReadReq_misses::cpu3.data              7463                       # number of ReadReq misses
system.l2.ReadReq_misses::total                 35833                       # number of ReadReq misses
system.l2.UpgradeReq_misses::cpu0.data            100                       # number of UpgradeReq misses
system.l2.UpgradeReq_misses::cpu1.data            103                       # number of UpgradeReq misses
system.l2.UpgradeReq_misses::cpu2.data             87                       # number of UpgradeReq misses
system.l2.UpgradeReq_misses::cpu3.data             89                       # number of UpgradeReq misses
system.l2.UpgradeReq_misses::total                379                       # number of UpgradeReq misses
system.l2.SCUpgradeReq_misses::cpu0.data            6                       # number of SCUpgradeReq misses
system.l2.SCUpgradeReq_misses::cpu3.data            5                       # number of SCUpgradeReq misses
system.l2.SCUpgradeReq_misses::total               11                       # number of SCUpgradeReq misses
system.l2.ReadExReq_misses::cpu0.data            8861                       # number of ReadExReq misses
system.l2.ReadExReq_misses::cpu1.data             868                       # number of ReadExReq misses
system.l2.ReadExReq_misses::cpu2.data             890                       # number of ReadExReq misses
system.l2.ReadExReq_misses::cpu3.data             937                       # number of ReadExReq misses
system.l2.ReadExReq_misses::total               11556                       # number of ReadExReq misses
system.l2.demand_misses::cpu0.inst               3417                       # number of demand (read+write) misses
system.l2.demand_misses::cpu0.data              18835                       # number of demand (read+write) misses
system.l2.demand_misses::cpu1.inst                393                       # number of demand (read+write) misses
system.l2.demand_misses::cpu1.data               7846                       # number of demand (read+write) misses
system.l2.demand_misses::cpu2.inst                112                       # number of demand (read+write) misses
system.l2.demand_misses::cpu2.data               8180                       # number of demand (read+write) misses
system.l2.demand_misses::cpu3.inst                206                       # number of demand (read+write) misses
system.l2.demand_misses::cpu3.data               8400                       # number of demand (read+write) misses
system.l2.demand_misses::total                  47389                       # number of demand (read+write) misses
system.l2.overall_misses::cpu0.inst              3417                       # number of overall misses
system.l2.overall_misses::cpu0.data             18835                       # number of overall misses
system.l2.overall_misses::cpu1.inst               393                       # number of overall misses
system.l2.overall_misses::cpu1.data              7846                       # number of overall misses
system.l2.overall_misses::cpu2.inst               112                       # number of overall misses
system.l2.overall_misses::cpu2.data              8180                       # number of overall misses
system.l2.overall_misses::cpu3.inst               206                       # number of overall misses
system.l2.overall_misses::cpu3.data              8400                       # number of overall misses
system.l2.overall_misses::total                 47389                       # number of overall misses
system.l2.ReadReq_miss_latency::cpu0.inst    177136000                       # number of ReadReq miss cycles
system.l2.ReadReq_miss_latency::cpu0.data    522381000                       # number of ReadReq miss cycles
system.l2.ReadReq_miss_latency::cpu1.inst     20077000                       # number of ReadReq miss cycles
system.l2.ReadReq_miss_latency::cpu1.data    366165000                       # number of ReadReq miss cycles
system.l2.ReadReq_miss_latency::cpu2.inst      5346000                       # number of ReadReq miss cycles
system.l2.ReadReq_miss_latency::cpu2.data    382681000                       # number of ReadReq miss cycles
system.l2.ReadReq_miss_latency::cpu3.inst     10339000                       # number of ReadReq miss cycles
system.l2.ReadReq_miss_latency::cpu3.data    391569000                       # number of ReadReq miss cycles
system.l2.ReadReq_miss_latency::total      1875694000                       # number of ReadReq miss cycles
system.l2.UpgradeReq_miss_latency::cpu0.data      1992000                       # number of UpgradeReq miss cycles
system.l2.UpgradeReq_miss_latency::cpu1.data      2983000                       # number of UpgradeReq miss cycles
system.l2.UpgradeReq_miss_latency::cpu2.data      1097000                       # number of UpgradeReq miss cycles
system.l2.UpgradeReq_miss_latency::cpu3.data      1524000                       # number of UpgradeReq miss cycles
system.l2.UpgradeReq_miss_latency::total      7596000                       # number of UpgradeReq miss cycles
system.l2.ReadExReq_miss_latency::cpu0.data    465215000                       # number of ReadExReq miss cycles
system.l2.ReadExReq_miss_latency::cpu1.data     45458000                       # number of ReadExReq miss cycles
system.l2.ReadExReq_miss_latency::cpu2.data     46626000                       # number of ReadExReq miss cycles
system.l2.ReadExReq_miss_latency::cpu3.data     49073000                       # number of ReadExReq miss cycles
system.l2.ReadExReq_miss_latency::total     606372000                       # number of ReadExReq miss cycles
system.l2.demand_miss_latency::cpu0.inst    177136000                       # number of demand (read+write) miss cycles
system.l2.demand_miss_latency::cpu0.data    987596000                       # number of demand (read+write) miss cycles
system.l2.demand_miss_latency::cpu1.inst     20077000                       # number of demand (read+write) miss cycles
system.l2.demand_miss_latency::cpu1.data    411623000                       # number of demand (read+write) miss cycles
system.l2.demand_miss_latency::cpu2.inst      5346000                       # number of demand (read+write) miss cycles
system.l2.demand_miss_latency::cpu2.data    429307000                       # number of demand (read+write) miss cycles
system.l2.demand_miss_latency::cpu3.inst     10339000                       # number of demand (read+write) miss cycles
system.l2.demand_miss_latency::cpu3.data    440642000                       # number of demand (read+write) miss cycles
system.l2.demand_miss_latency::total       2482066000                       # number of demand (read+write) miss cycles
system.l2.overall_miss_latency::cpu0.inst    177136000                       # number of overall miss cycles
system.l2.overall_miss_latency::cpu0.data    987596000                       # number of overall miss cycles
system.l2.overall_miss_latency::cpu1.inst     20077000                       # number of overall miss cycles
system.l2.overall_miss_latency::cpu1.data    411623000                       # number of overall miss cycles
system.l2.overall_miss_latency::cpu2.inst      5346000                       # number of overall miss cycles
system.l2.overall_miss_latency::cpu2.data    429307000                       # number of overall miss cycles
system.l2.overall_miss_latency::cpu3.inst     10339000                       # number of overall miss cycles
system.l2.overall_miss_latency::cpu3.data    440642000                       # number of overall miss cycles
system.l2.overall_miss_latency::total      2482066000                       # number of overall miss cycles
system.l2.ReadReq_accesses::cpu0.inst          126920                       # number of ReadReq accesses(hits+misses)
system.l2.ReadReq_accesses::cpu0.data           60729                       # number of ReadReq accesses(hits+misses)
system.l2.ReadReq_accesses::cpu1.inst             637                       # number of ReadReq accesses(hits+misses)
system.l2.ReadReq_accesses::cpu1.data           52084                       # number of ReadReq accesses(hits+misses)
system.l2.ReadReq_accesses::cpu2.inst             628                       # number of ReadReq accesses(hits+misses)
system.l2.ReadReq_accesses::cpu2.data           52778                       # number of ReadReq accesses(hits+misses)
system.l2.ReadReq_accesses::cpu3.inst             667                       # number of ReadReq accesses(hits+misses)
system.l2.ReadReq_accesses::cpu3.data           51794                       # number of ReadReq accesses(hits+misses)
system.l2.ReadReq_accesses::total              346237                       # number of ReadReq accesses(hits+misses)
system.l2.Writeback_accesses::writebacks        77568                       # number of Writeback accesses(hits+misses)
system.l2.Writeback_accesses::total             77568                       # number of Writeback accesses(hits+misses)
system.l2.UpgradeReq_accesses::cpu0.data          421                       # number of UpgradeReq accesses(hits+misses)
system.l2.UpgradeReq_accesses::cpu1.data          397                       # number of UpgradeReq accesses(hits+misses)
system.l2.UpgradeReq_accesses::cpu2.data          372                       # number of UpgradeReq accesses(hits+misses)
system.l2.UpgradeReq_accesses::cpu3.data          368                       # number of UpgradeReq accesses(hits+misses)
system.l2.UpgradeReq_accesses::total             1558                       # number of UpgradeReq accesses(hits+misses)
system.l2.SCUpgradeReq_accesses::cpu0.data            6                       # number of SCUpgradeReq accesses(hits+misses)
system.l2.SCUpgradeReq_accesses::cpu2.data            1                       # number of SCUpgradeReq accesses(hits+misses)
system.l2.SCUpgradeReq_accesses::cpu3.data            8                       # number of SCUpgradeReq accesses(hits+misses)
system.l2.SCUpgradeReq_accesses::total             15                       # number of SCUpgradeReq accesses(hits+misses)
system.l2.ReadExReq_accesses::cpu0.data          9123                       # number of ReadExReq accesses(hits+misses)
system.l2.ReadExReq_accesses::cpu1.data          1055                       # number of ReadExReq accesses(hits+misses)
system.l2.ReadExReq_accesses::cpu2.data          1064                       # number of ReadExReq accesses(hits+misses)
system.l2.ReadExReq_accesses::cpu3.data          1100                       # number of ReadExReq accesses(hits+misses)
system.l2.ReadExReq_accesses::total             12342                       # number of ReadExReq accesses(hits+misses)
system.l2.demand_accesses::cpu0.inst           126920                       # number of demand (read+write) accesses
system.l2.demand_accesses::cpu0.data            69852                       # number of demand (read+write) accesses
system.l2.demand_accesses::cpu1.inst              637                       # number of demand (read+write) accesses
system.l2.demand_accesses::cpu1.data            53139                       # number of demand (read+write) accesses
system.l2.demand_accesses::cpu2.inst              628                       # number of demand (read+write) accesses
system.l2.demand_accesses::cpu2.data            53842                       # number of demand (read+write) accesses
system.l2.demand_accesses::cpu3.inst              667                       # number of demand (read+write) accesses
system.l2.demand_accesses::cpu3.data            52894                       # number of demand (read+write) accesses
system.l2.demand_accesses::total               358579                       # number of demand (read+write) accesses
system.l2.overall_accesses::cpu0.inst          126920                       # number of overall (read+write) accesses
system.l2.overall_accesses::cpu0.data           69852                       # number of overall (read+write) accesses
system.l2.overall_accesses::cpu1.inst             637                       # number of overall (read+write) accesses
system.l2.overall_accesses::cpu1.data           53139                       # number of overall (read+write) accesses
system.l2.overall_accesses::cpu2.inst             628                       # number of overall (read+write) accesses
system.l2.overall_accesses::cpu2.data           53842                       # number of overall (read+write) accesses
system.l2.overall_accesses::cpu3.inst             667                       # number of overall (read+write) accesses
system.l2.overall_accesses::cpu3.data           52894                       # number of overall (read+write) accesses
system.l2.overall_accesses::total              358579                       # number of overall (read+write) accesses
system.l2.ReadReq_miss_rate::cpu0.inst       0.026922                       # miss rate for ReadReq accesses
system.l2.ReadReq_miss_rate::cpu0.data       0.164238                       # miss rate for ReadReq accesses
system.l2.ReadReq_miss_rate::cpu1.inst       0.616954                       # miss rate for ReadReq accesses
system.l2.ReadReq_miss_rate::cpu1.data       0.133976                       # miss rate for ReadReq accesses
system.l2.ReadReq_miss_rate::cpu2.inst       0.178344                       # miss rate for ReadReq accesses
system.l2.ReadReq_miss_rate::cpu2.data       0.138126                       # miss rate for ReadReq accesses
system.l2.ReadReq_miss_rate::cpu3.inst       0.308846                       # miss rate for ReadReq accesses
system.l2.ReadReq_miss_rate::cpu3.data       0.144090                       # miss rate for ReadReq accesses
system.l2.ReadReq_miss_rate::total           0.103493                       # miss rate for ReadReq accesses
system.l2.UpgradeReq_miss_rate::cpu0.data     0.237530                       # miss rate for UpgradeReq accesses
system.l2.UpgradeReq_miss_rate::cpu1.data     0.259446                       # miss rate for UpgradeReq accesses
system.l2.UpgradeReq_miss_rate::cpu2.data     0.233871                       # miss rate for UpgradeReq accesses
system.l2.UpgradeReq_miss_rate::cpu3.data     0.241848                       # miss rate for UpgradeReq accesses
system.l2.UpgradeReq_miss_rate::total        0.243261                       # miss rate for UpgradeReq accesses
system.l2.SCUpgradeReq_miss_rate::cpu0.data            1                       # miss rate for SCUpgradeReq accesses
system.l2.SCUpgradeReq_miss_rate::cpu3.data     0.625000                       # miss rate for SCUpgradeReq accesses
system.l2.SCUpgradeReq_miss_rate::total      0.733333                       # miss rate for SCUpgradeReq accesses
system.l2.ReadExReq_miss_rate::cpu0.data     0.971281                       # miss rate for ReadExReq accesses
system.l2.ReadExReq_miss_rate::cpu1.data     0.822749                       # miss rate for ReadExReq accesses
system.l2.ReadExReq_miss_rate::cpu2.data     0.836466                       # miss rate for ReadExReq accesses
system.l2.ReadExReq_miss_rate::cpu3.data     0.851818                       # miss rate for ReadExReq accesses
system.l2.ReadExReq_miss_rate::total         0.936315                       # miss rate for ReadExReq accesses
system.l2.demand_miss_rate::cpu0.inst        0.026922                       # miss rate for demand accesses
system.l2.demand_miss_rate::cpu0.data        0.269642                       # miss rate for demand accesses
system.l2.demand_miss_rate::cpu1.inst        0.616954                       # miss rate for demand accesses
system.l2.demand_miss_rate::cpu1.data        0.147651                       # miss rate for demand accesses
system.l2.demand_miss_rate::cpu2.inst        0.178344                       # miss rate for demand accesses
system.l2.demand_miss_rate::cpu2.data        0.151926                       # miss rate for demand accesses
system.l2.demand_miss_rate::cpu3.inst        0.308846                       # miss rate for demand accesses
system.l2.demand_miss_rate::cpu3.data        0.158808                       # miss rate for demand accesses
system.l2.demand_miss_rate::total            0.132158                       # miss rate for demand accesses
system.l2.overall_miss_rate::cpu0.inst       0.026922                       # miss rate for overall accesses
system.l2.overall_miss_rate::cpu0.data       0.269642                       # miss rate for overall accesses
system.l2.overall_miss_rate::cpu1.inst       0.616954                       # miss rate for overall accesses
system.l2.overall_miss_rate::cpu1.data       0.147651                       # miss rate for overall accesses
system.l2.overall_miss_rate::cpu2.inst       0.178344                       # miss rate for overall accesses
system.l2.overall_miss_rate::cpu2.data       0.151926                       # miss rate for overall accesses
system.l2.overall_miss_rate::cpu3.inst       0.308846                       # miss rate for overall accesses
system.l2.overall_miss_rate::cpu3.data       0.158808                       # miss rate for overall accesses
system.l2.overall_miss_rate::total           0.132158                       # miss rate for overall accesses
system.l2.ReadReq_avg_miss_latency::cpu0.inst 51839.625402                       # average ReadReq miss latency
system.l2.ReadReq_avg_miss_latency::cpu0.data 52374.273110                       # average ReadReq miss latency
system.l2.ReadReq_avg_miss_latency::cpu1.inst 51086.513995                       # average ReadReq miss latency
system.l2.ReadReq_avg_miss_latency::cpu1.data 52474.204643                       # average ReadReq miss latency
system.l2.ReadReq_avg_miss_latency::cpu2.inst 47732.142857                       # average ReadReq miss latency
system.l2.ReadReq_avg_miss_latency::cpu2.data 52493.964335                       # average ReadReq miss latency
system.l2.ReadReq_avg_miss_latency::cpu3.inst 50189.320388                       # average ReadReq miss latency
system.l2.ReadReq_avg_miss_latency::cpu3.data 52468.042342                       # average ReadReq miss latency
system.l2.ReadReq_avg_miss_latency::total 52345.435771                       # average ReadReq miss latency
system.l2.UpgradeReq_avg_miss_latency::cpu0.data        19920                       # average UpgradeReq miss latency
system.l2.UpgradeReq_avg_miss_latency::cpu1.data 28961.165049                       # average UpgradeReq miss latency
system.l2.UpgradeReq_avg_miss_latency::cpu2.data 12609.195402                       # average UpgradeReq miss latency
system.l2.UpgradeReq_avg_miss_latency::cpu3.data 17123.595506                       # average UpgradeReq miss latency
system.l2.UpgradeReq_avg_miss_latency::total 20042.216359                       # average UpgradeReq miss latency
system.l2.ReadExReq_avg_miss_latency::cpu0.data 52501.410676                       # average ReadExReq miss latency
system.l2.ReadExReq_avg_miss_latency::cpu1.data 52370.967742                       # average ReadExReq miss latency
system.l2.ReadExReq_avg_miss_latency::cpu2.data 52388.764045                       # average ReadExReq miss latency
system.l2.ReadExReq_avg_miss_latency::cpu3.data 52372.465315                       # average ReadExReq miss latency
system.l2.ReadExReq_avg_miss_latency::total 52472.481828                       # average ReadExReq miss latency
system.l2.demand_avg_miss_latency::cpu0.inst 51839.625402                       # average overall miss latency
system.l2.demand_avg_miss_latency::cpu0.data 52434.085479                       # average overall miss latency
system.l2.demand_avg_miss_latency::cpu1.inst 51086.513995                       # average overall miss latency
system.l2.demand_avg_miss_latency::cpu1.data 52462.783584                       # average overall miss latency
system.l2.demand_avg_miss_latency::cpu2.inst 47732.142857                       # average overall miss latency
system.l2.demand_avg_miss_latency::cpu2.data 52482.518337                       # average overall miss latency
system.l2.demand_avg_miss_latency::cpu3.inst 50189.320388                       # average overall miss latency
system.l2.demand_avg_miss_latency::cpu3.data 52457.380952                       # average overall miss latency
system.l2.demand_avg_miss_latency::total 52376.416468                       # average overall miss latency
system.l2.overall_avg_miss_latency::cpu0.inst 51839.625402                       # average overall miss latency
system.l2.overall_avg_miss_latency::cpu0.data 52434.085479                       # average overall miss latency
system.l2.overall_avg_miss_latency::cpu1.inst 51086.513995                       # average overall miss latency
system.l2.overall_avg_miss_latency::cpu1.data 52462.783584                       # average overall miss latency
system.l2.overall_avg_miss_latency::cpu2.inst 47732.142857                       # average overall miss latency
system.l2.overall_avg_miss_latency::cpu2.data 52482.518337                       # average overall miss latency
system.l2.overall_avg_miss_latency::cpu3.inst 50189.320388                       # average overall miss latency
system.l2.overall_avg_miss_latency::cpu3.data 52457.380952                       # average overall miss latency
system.l2.overall_avg_miss_latency::total 52376.416468                       # average overall miss latency
system.l2.blocked_cycles::no_mshrs                  0                       # number of cycles access was blocked
system.l2.blocked_cycles::no_targets                0                       # number of cycles access was blocked
system.l2.blocked::no_mshrs                         0                       # number of cycles access was blocked
system.l2.blocked::no_targets                       0                       # number of cycles access was blocked
system.l2.avg_blocked_cycles::no_mshrs            nan                       # average number of cycles each access was blocked
system.l2.avg_blocked_cycles::no_targets          nan                       # average number of cycles each access was blocked
system.l2.fast_writes                               0                       # number of fast writes performed
system.l2.cache_copies                              0                       # number of cache copies performed
system.l2.writebacks::writebacks                29253                       # number of writebacks
system.l2.writebacks::total                     29253                       # number of writebacks
system.l2.ReadReq_mshr_hits::cpu0.inst             75                       # number of ReadReq MSHR hits
system.l2.ReadReq_mshr_hits::cpu0.data             17                       # number of ReadReq MSHR hits
system.l2.ReadReq_mshr_hits::cpu1.inst             78                       # number of ReadReq MSHR hits
system.l2.ReadReq_mshr_hits::cpu1.data             26                       # number of ReadReq MSHR hits
system.l2.ReadReq_mshr_hits::cpu2.inst             57                       # number of ReadReq MSHR hits
system.l2.ReadReq_mshr_hits::cpu2.data             23                       # number of ReadReq MSHR hits
system.l2.ReadReq_mshr_hits::cpu3.inst             50                       # number of ReadReq MSHR hits
system.l2.ReadReq_mshr_hits::cpu3.data             25                       # number of ReadReq MSHR hits
system.l2.ReadReq_mshr_hits::total                351                       # number of ReadReq MSHR hits
system.l2.demand_mshr_hits::cpu0.inst              75                       # number of demand (read+write) MSHR hits
system.l2.demand_mshr_hits::cpu0.data              17                       # number of demand (read+write) MSHR hits
system.l2.demand_mshr_hits::cpu1.inst              78                       # number of demand (read+write) MSHR hits
system.l2.demand_mshr_hits::cpu1.data              26                       # number of demand (read+write) MSHR hits
system.l2.demand_mshr_hits::cpu2.inst              57                       # number of demand (read+write) MSHR hits
system.l2.demand_mshr_hits::cpu2.data              23                       # number of demand (read+write) MSHR hits
system.l2.demand_mshr_hits::cpu3.inst              50                       # number of demand (read+write) MSHR hits
system.l2.demand_mshr_hits::cpu3.data              25                       # number of demand (read+write) MSHR hits
system.l2.demand_mshr_hits::total                 351                       # number of demand (read+write) MSHR hits
system.l2.overall_mshr_hits::cpu0.inst             75                       # number of overall MSHR hits
system.l2.overall_mshr_hits::cpu0.data             17                       # number of overall MSHR hits
system.l2.overall_mshr_hits::cpu1.inst             78                       # number of overall MSHR hits
system.l2.overall_mshr_hits::cpu1.data             26                       # number of overall MSHR hits
system.l2.overall_mshr_hits::cpu2.inst             57                       # number of overall MSHR hits
system.l2.overall_mshr_hits::cpu2.data             23                       # number of overall MSHR hits
system.l2.overall_mshr_hits::cpu3.inst             50                       # number of overall MSHR hits
system.l2.overall_mshr_hits::cpu3.data             25                       # number of overall MSHR hits
system.l2.overall_mshr_hits::total                351                       # number of overall MSHR hits
system.l2.ReadReq_mshr_misses::cpu0.inst         3342                       # number of ReadReq MSHR misses
system.l2.ReadReq_mshr_misses::cpu0.data         9957                       # number of ReadReq MSHR misses
system.l2.ReadReq_mshr_misses::cpu1.inst          315                       # number of ReadReq MSHR misses
system.l2.ReadReq_mshr_misses::cpu1.data         6952                       # number of ReadReq MSHR misses
system.l2.ReadReq_mshr_misses::cpu2.inst           55                       # number of ReadReq MSHR misses
system.l2.ReadReq_mshr_misses::cpu2.data         7267                       # number of ReadReq MSHR misses
system.l2.ReadReq_mshr_misses::cpu3.inst          156                       # number of ReadReq MSHR misses
system.l2.ReadReq_mshr_misses::cpu3.data         7438                       # number of ReadReq MSHR misses
system.l2.ReadReq_mshr_misses::total            35482                       # number of ReadReq MSHR misses
system.l2.UpgradeReq_mshr_misses::cpu0.data          100                       # number of UpgradeReq MSHR misses
system.l2.UpgradeReq_mshr_misses::cpu1.data          103                       # number of UpgradeReq MSHR misses
system.l2.UpgradeReq_mshr_misses::cpu2.data           87                       # number of UpgradeReq MSHR misses
system.l2.UpgradeReq_mshr_misses::cpu3.data           89                       # number of UpgradeReq MSHR misses
system.l2.UpgradeReq_mshr_misses::total           379                       # number of UpgradeReq MSHR misses
system.l2.SCUpgradeReq_mshr_misses::cpu0.data            6                       # number of SCUpgradeReq MSHR misses
system.l2.SCUpgradeReq_mshr_misses::cpu3.data            5                       # number of SCUpgradeReq MSHR misses
system.l2.SCUpgradeReq_mshr_misses::total           11                       # number of SCUpgradeReq MSHR misses
system.l2.ReadExReq_mshr_misses::cpu0.data         8861                       # number of ReadExReq MSHR misses
system.l2.ReadExReq_mshr_misses::cpu1.data          868                       # number of ReadExReq MSHR misses
system.l2.ReadExReq_mshr_misses::cpu2.data          890                       # number of ReadExReq MSHR misses
system.l2.ReadExReq_mshr_misses::cpu3.data          937                       # number of ReadExReq MSHR misses
system.l2.ReadExReq_mshr_misses::total          11556                       # number of ReadExReq MSHR misses
system.l2.demand_mshr_misses::cpu0.inst          3342                       # number of demand (read+write) MSHR misses
system.l2.demand_mshr_misses::cpu0.data         18818                       # number of demand (read+write) MSHR misses
system.l2.demand_mshr_misses::cpu1.inst           315                       # number of demand (read+write) MSHR misses
system.l2.demand_mshr_misses::cpu1.data          7820                       # number of demand (read+write) MSHR misses
system.l2.demand_mshr_misses::cpu2.inst            55                       # number of demand (read+write) MSHR misses
system.l2.demand_mshr_misses::cpu2.data          8157                       # number of demand (read+write) MSHR misses
system.l2.demand_mshr_misses::cpu3.inst           156                       # number of demand (read+write) MSHR misses
system.l2.demand_mshr_misses::cpu3.data          8375                       # number of demand (read+write) MSHR misses
system.l2.demand_mshr_misses::total             47038                       # number of demand (read+write) MSHR misses
system.l2.overall_mshr_misses::cpu0.inst         3342                       # number of overall MSHR misses
system.l2.overall_mshr_misses::cpu0.data        18818                       # number of overall MSHR misses
system.l2.overall_mshr_misses::cpu1.inst          315                       # number of overall MSHR misses
system.l2.overall_mshr_misses::cpu1.data         7820                       # number of overall MSHR misses
system.l2.overall_mshr_misses::cpu2.inst           55                       # number of overall MSHR misses
system.l2.overall_mshr_misses::cpu2.data         8157                       # number of overall MSHR misses
system.l2.overall_mshr_misses::cpu3.inst          156                       # number of overall MSHR misses
system.l2.overall_mshr_misses::cpu3.data         8375                       # number of overall MSHR misses
system.l2.overall_mshr_misses::total            47038                       # number of overall MSHR misses
system.l2.ReadReq_mshr_miss_latency::cpu0.inst    133770000                       # number of ReadReq MSHR miss cycles
system.l2.ReadReq_mshr_miss_latency::cpu0.data    402349000                       # number of ReadReq MSHR miss cycles
system.l2.ReadReq_mshr_miss_latency::cpu1.inst     12644000                       # number of ReadReq MSHR miss cycles
system.l2.ReadReq_mshr_miss_latency::cpu1.data    281753000                       # number of ReadReq MSHR miss cycles
system.l2.ReadReq_mshr_miss_latency::cpu2.inst      2205000                       # number of ReadReq MSHR miss cycles
system.l2.ReadReq_mshr_miss_latency::cpu2.data    294714000                       # number of ReadReq MSHR miss cycles
system.l2.ReadReq_mshr_miss_latency::cpu3.inst      6271000                       # number of ReadReq MSHR miss cycles
system.l2.ReadReq_mshr_miss_latency::cpu3.data    301450000                       # number of ReadReq MSHR miss cycles
system.l2.ReadReq_mshr_miss_latency::total   1435156000                       # number of ReadReq MSHR miss cycles
system.l2.UpgradeReq_mshr_miss_latency::cpu0.data      4097000                       # number of UpgradeReq MSHR miss cycles
system.l2.UpgradeReq_mshr_miss_latency::cpu1.data      4179000                       # number of UpgradeReq MSHR miss cycles
system.l2.UpgradeReq_mshr_miss_latency::cpu2.data      3555000                       # number of UpgradeReq MSHR miss cycles
system.l2.UpgradeReq_mshr_miss_latency::cpu3.data      3701000                       # number of UpgradeReq MSHR miss cycles
system.l2.UpgradeReq_mshr_miss_latency::total     15532000                       # number of UpgradeReq MSHR miss cycles
system.l2.SCUpgradeReq_mshr_miss_latency::cpu0.data       242000                       # number of SCUpgradeReq MSHR miss cycles
system.l2.SCUpgradeReq_mshr_miss_latency::cpu3.data       201000                       # number of SCUpgradeReq MSHR miss cycles
system.l2.SCUpgradeReq_mshr_miss_latency::total       443000                       # number of SCUpgradeReq MSHR miss cycles
system.l2.ReadExReq_mshr_miss_latency::cpu0.data    358883000                       # number of ReadExReq MSHR miss cycles
system.l2.ReadExReq_mshr_miss_latency::cpu1.data     35042000                       # number of ReadExReq MSHR miss cycles
system.l2.ReadExReq_mshr_miss_latency::cpu2.data     35946000                       # number of ReadExReq MSHR miss cycles
system.l2.ReadExReq_mshr_miss_latency::cpu3.data     37829000                       # number of ReadExReq MSHR miss cycles
system.l2.ReadExReq_mshr_miss_latency::total    467700000                       # number of ReadExReq MSHR miss cycles
system.l2.demand_mshr_miss_latency::cpu0.inst    133770000                       # number of demand (read+write) MSHR miss cycles
system.l2.demand_mshr_miss_latency::cpu0.data    761232000                       # number of demand (read+write) MSHR miss cycles
system.l2.demand_mshr_miss_latency::cpu1.inst     12644000                       # number of demand (read+write) MSHR miss cycles
system.l2.demand_mshr_miss_latency::cpu1.data    316795000                       # number of demand (read+write) MSHR miss cycles
system.l2.demand_mshr_miss_latency::cpu2.inst      2205000                       # number of demand (read+write) MSHR miss cycles
system.l2.demand_mshr_miss_latency::cpu2.data    330660000                       # number of demand (read+write) MSHR miss cycles
system.l2.demand_mshr_miss_latency::cpu3.inst      6271000                       # number of demand (read+write) MSHR miss cycles
system.l2.demand_mshr_miss_latency::cpu3.data    339279000                       # number of demand (read+write) MSHR miss cycles
system.l2.demand_mshr_miss_latency::total   1902856000                       # number of demand (read+write) MSHR miss cycles
system.l2.overall_mshr_miss_latency::cpu0.inst    133770000                       # number of overall MSHR miss cycles
system.l2.overall_mshr_miss_latency::cpu0.data    761232000                       # number of overall MSHR miss cycles
system.l2.overall_mshr_miss_latency::cpu1.inst     12644000                       # number of overall MSHR miss cycles
system.l2.overall_mshr_miss_latency::cpu1.data    316795000                       # number of overall MSHR miss cycles
system.l2.overall_mshr_miss_latency::cpu2.inst      2205000                       # number of overall MSHR miss cycles
system.l2.overall_mshr_miss_latency::cpu2.data    330660000                       # number of overall MSHR miss cycles
system.l2.overall_mshr_miss_latency::cpu3.inst      6271000                       # number of overall MSHR miss cycles
system.l2.overall_mshr_miss_latency::cpu3.data    339279000                       # number of overall MSHR miss cycles
system.l2.overall_mshr_miss_latency::total   1902856000                       # number of overall MSHR miss cycles
system.l2.ReadReq_mshr_miss_rate::cpu0.inst     0.026332                       # mshr miss rate for ReadReq accesses
system.l2.ReadReq_mshr_miss_rate::cpu0.data     0.163958                       # mshr miss rate for ReadReq accesses
system.l2.ReadReq_mshr_miss_rate::cpu1.inst     0.494505                       # mshr miss rate for ReadReq accesses
system.l2.ReadReq_mshr_miss_rate::cpu1.data     0.133477                       # mshr miss rate for ReadReq accesses
system.l2.ReadReq_mshr_miss_rate::cpu2.inst     0.087580                       # mshr miss rate for ReadReq accesses
system.l2.ReadReq_mshr_miss_rate::cpu2.data     0.137690                       # mshr miss rate for ReadReq accesses
system.l2.ReadReq_mshr_miss_rate::cpu3.inst     0.233883                       # mshr miss rate for ReadReq accesses
system.l2.ReadReq_mshr_miss_rate::cpu3.data     0.143607                       # mshr miss rate for ReadReq accesses
system.l2.ReadReq_mshr_miss_rate::total      0.102479                       # mshr miss rate for ReadReq accesses
system.l2.UpgradeReq_mshr_miss_rate::cpu0.data     0.237530                       # mshr miss rate for UpgradeReq accesses
system.l2.UpgradeReq_mshr_miss_rate::cpu1.data     0.259446                       # mshr miss rate for UpgradeReq accesses
system.l2.UpgradeReq_mshr_miss_rate::cpu2.data     0.233871                       # mshr miss rate for UpgradeReq accesses
system.l2.UpgradeReq_mshr_miss_rate::cpu3.data     0.241848                       # mshr miss rate for UpgradeReq accesses
system.l2.UpgradeReq_mshr_miss_rate::total     0.243261                       # mshr miss rate for UpgradeReq accesses
system.l2.SCUpgradeReq_mshr_miss_rate::cpu0.data            1                       # mshr miss rate for SCUpgradeReq accesses
system.l2.SCUpgradeReq_mshr_miss_rate::cpu3.data     0.625000                       # mshr miss rate for SCUpgradeReq accesses
system.l2.SCUpgradeReq_mshr_miss_rate::total     0.733333                       # mshr miss rate for SCUpgradeReq accesses
system.l2.ReadExReq_mshr_miss_rate::cpu0.data     0.971281                       # mshr miss rate for ReadExReq accesses
system.l2.ReadExReq_mshr_miss_rate::cpu1.data     0.822749                       # mshr miss rate for ReadExReq accesses
system.l2.ReadExReq_mshr_miss_rate::cpu2.data     0.836466                       # mshr miss rate for ReadExReq accesses
system.l2.ReadExReq_mshr_miss_rate::cpu3.data     0.851818                       # mshr miss rate for ReadExReq accesses
system.l2.ReadExReq_mshr_miss_rate::total     0.936315                       # mshr miss rate for ReadExReq accesses
system.l2.demand_mshr_miss_rate::cpu0.inst     0.026332                       # mshr miss rate for demand accesses
system.l2.demand_mshr_miss_rate::cpu0.data     0.269398                       # mshr miss rate for demand accesses
system.l2.demand_mshr_miss_rate::cpu1.inst     0.494505                       # mshr miss rate for demand accesses
system.l2.demand_mshr_miss_rate::cpu1.data     0.147161                       # mshr miss rate for demand accesses
system.l2.demand_mshr_miss_rate::cpu2.inst     0.087580                       # mshr miss rate for demand accesses
system.l2.demand_mshr_miss_rate::cpu2.data     0.151499                       # mshr miss rate for demand accesses
system.l2.demand_mshr_miss_rate::cpu3.inst     0.233883                       # mshr miss rate for demand accesses
system.l2.demand_mshr_miss_rate::cpu3.data     0.158336                       # mshr miss rate for demand accesses
system.l2.demand_mshr_miss_rate::total       0.131179                       # mshr miss rate for demand accesses
system.l2.overall_mshr_miss_rate::cpu0.inst     0.026332                       # mshr miss rate for overall accesses
system.l2.overall_mshr_miss_rate::cpu0.data     0.269398                       # mshr miss rate for overall accesses
system.l2.overall_mshr_miss_rate::cpu1.inst     0.494505                       # mshr miss rate for overall accesses
system.l2.overall_mshr_miss_rate::cpu1.data     0.147161                       # mshr miss rate for overall accesses
system.l2.overall_mshr_miss_rate::cpu2.inst     0.087580                       # mshr miss rate for overall accesses
system.l2.overall_mshr_miss_rate::cpu2.data     0.151499                       # mshr miss rate for overall accesses
system.l2.overall_mshr_miss_rate::cpu3.inst     0.233883                       # mshr miss rate for overall accesses
system.l2.overall_mshr_miss_rate::cpu3.data     0.158336                       # mshr miss rate for overall accesses
system.l2.overall_mshr_miss_rate::total      0.131179                       # mshr miss rate for overall accesses
system.l2.ReadReq_avg_mshr_miss_latency::cpu0.inst 40026.929982                       # average ReadReq mshr miss latency
system.l2.ReadReq_avg_mshr_miss_latency::cpu0.data 40408.657226                       # average ReadReq mshr miss latency
system.l2.ReadReq_avg_mshr_miss_latency::cpu1.inst 40139.682540                       # average ReadReq mshr miss latency
system.l2.ReadReq_avg_mshr_miss_latency::cpu1.data 40528.337169                       # average ReadReq mshr miss latency
system.l2.ReadReq_avg_mshr_miss_latency::cpu2.inst 40090.909091                       # average ReadReq mshr miss latency
system.l2.ReadReq_avg_mshr_miss_latency::cpu2.data 40555.112151                       # average ReadReq mshr miss latency
system.l2.ReadReq_avg_mshr_miss_latency::cpu3.inst 40198.717949                       # average ReadReq mshr miss latency
system.l2.ReadReq_avg_mshr_miss_latency::cpu3.data 40528.367841                       # average ReadReq mshr miss latency
system.l2.ReadReq_avg_mshr_miss_latency::total 40447.438138                       # average ReadReq mshr miss latency
system.l2.UpgradeReq_avg_mshr_miss_latency::cpu0.data        40970                       # average UpgradeReq mshr miss latency
system.l2.UpgradeReq_avg_mshr_miss_latency::cpu1.data 40572.815534                       # average UpgradeReq mshr miss latency
system.l2.UpgradeReq_avg_mshr_miss_latency::cpu2.data 40862.068966                       # average UpgradeReq mshr miss latency
system.l2.UpgradeReq_avg_mshr_miss_latency::cpu3.data 41584.269663                       # average UpgradeReq mshr miss latency
system.l2.UpgradeReq_avg_mshr_miss_latency::total 40981.530343                       # average UpgradeReq mshr miss latency
system.l2.SCUpgradeReq_avg_mshr_miss_latency::cpu0.data 40333.333333                       # average SCUpgradeReq mshr miss latency
system.l2.SCUpgradeReq_avg_mshr_miss_latency::cpu3.data        40200                       # average SCUpgradeReq mshr miss latency
system.l2.SCUpgradeReq_avg_mshr_miss_latency::total 40272.727273                       # average SCUpgradeReq mshr miss latency
system.l2.ReadExReq_avg_mshr_miss_latency::cpu0.data 40501.410676                       # average ReadExReq mshr miss latency
system.l2.ReadExReq_avg_mshr_miss_latency::cpu1.data 40370.967742                       # average ReadExReq mshr miss latency
system.l2.ReadExReq_avg_mshr_miss_latency::cpu2.data 40388.764045                       # average ReadExReq mshr miss latency
system.l2.ReadExReq_avg_mshr_miss_latency::cpu3.data 40372.465315                       # average ReadExReq mshr miss latency
system.l2.ReadExReq_avg_mshr_miss_latency::total 40472.481828                       # average ReadExReq mshr miss latency
system.l2.demand_avg_mshr_miss_latency::cpu0.inst 40026.929982                       # average overall mshr miss latency
system.l2.demand_avg_mshr_miss_latency::cpu0.data 40452.332873                       # average overall mshr miss latency
system.l2.demand_avg_mshr_miss_latency::cpu1.inst 40139.682540                       # average overall mshr miss latency
system.l2.demand_avg_mshr_miss_latency::cpu1.data 40510.869565                       # average overall mshr miss latency
system.l2.demand_avg_mshr_miss_latency::cpu2.inst 40090.909091                       # average overall mshr miss latency
system.l2.demand_avg_mshr_miss_latency::cpu2.data 40536.962118                       # average overall mshr miss latency
system.l2.demand_avg_mshr_miss_latency::cpu3.inst 40198.717949                       # average overall mshr miss latency
system.l2.demand_avg_mshr_miss_latency::cpu3.data 40510.925373                       # average overall mshr miss latency
system.l2.demand_avg_mshr_miss_latency::total 40453.590714                       # average overall mshr miss latency
system.l2.overall_avg_mshr_miss_latency::cpu0.inst 40026.929982                       # average overall mshr miss latency
system.l2.overall_avg_mshr_miss_latency::cpu0.data 40452.332873                       # average overall mshr miss latency
system.l2.overall_avg_mshr_miss_latency::cpu1.inst 40139.682540                       # average overall mshr miss latency
system.l2.overall_avg_mshr_miss_latency::cpu1.data 40510.869565                       # average overall mshr miss latency
system.l2.overall_avg_mshr_miss_latency::cpu2.inst 40090.909091                       # average overall mshr miss latency
system.l2.overall_avg_mshr_miss_latency::cpu2.data 40536.962118                       # average overall mshr miss latency
system.l2.overall_avg_mshr_miss_latency::cpu3.inst 40198.717949                       # average overall mshr miss latency
system.l2.overall_avg_mshr_miss_latency::cpu3.data 40510.925373                       # average overall mshr miss latency
system.l2.overall_avg_mshr_miss_latency::total 40453.590714                       # average overall mshr miss latency
system.l2.no_allocate_misses                        0                       # Number of misses that were no-allocate
system.cpu0.dtb.fetch_hits                          0                       # ITB hits
system.cpu0.dtb.fetch_misses                        0                       # ITB misses
system.cpu0.dtb.fetch_acv                           0                       # ITB acv
system.cpu0.dtb.fetch_accesses                      0                       # ITB accesses
system.cpu0.dtb.read_hits                    36969275                       # DTB read hits
system.cpu0.dtb.read_misses                     21604                       # DTB read misses
system.cpu0.dtb.read_acv                            9                       # DTB read access violations
system.cpu0.dtb.read_accesses                36990879                       # DTB read accesses
system.cpu0.dtb.write_hits                   14922827                       # DTB write hits
system.cpu0.dtb.write_misses                      688                       # DTB write misses
system.cpu0.dtb.write_acv                           0                       # DTB write access violations
system.cpu0.dtb.write_accesses               14923515                       # DTB write accesses
system.cpu0.dtb.data_hits                    51892102                       # DTB hits
system.cpu0.dtb.data_misses                     22292                       # DTB misses
system.cpu0.dtb.data_acv                            9                       # DTB access violations
system.cpu0.dtb.data_accesses                51914394                       # DTB accesses
system.cpu0.itb.fetch_hits                   26877469                       # ITB hits
system.cpu0.itb.fetch_misses                      339                       # ITB misses
system.cpu0.itb.fetch_acv                           0                       # ITB acv
system.cpu0.itb.fetch_accesses               26877808                       # ITB accesses
system.cpu0.itb.read_hits                           0                       # DTB read hits
system.cpu0.itb.read_misses                         0                       # DTB read misses
system.cpu0.itb.read_acv                            0                       # DTB read access violations
system.cpu0.itb.read_accesses                       0                       # DTB read accesses
system.cpu0.itb.write_hits                          0                       # DTB write hits
system.cpu0.itb.write_misses                        0                       # DTB write misses
system.cpu0.itb.write_acv                           0                       # DTB write access violations
system.cpu0.itb.write_accesses                      0                       # DTB write accesses
system.cpu0.itb.data_hits                           0                       # DTB hits
system.cpu0.itb.data_misses                         0                       # DTB misses
system.cpu0.itb.data_acv                            0                       # DTB access violations
system.cpu0.itb.data_accesses                       0                       # DTB accesses
system.cpu0.numCycles                        61576342                       # number of cpu cycles simulated
system.cpu0.numWorkItemsStarted                     0                       # number of work items this cpu started
system.cpu0.numWorkItemsCompleted                   0                       # number of work items this cpu completed
system.cpu0.BPredUnit.lookups                27721230                       # Number of BP lookups
system.cpu0.BPredUnit.condPredicted          23835897                       # Number of conditional branches predicted
system.cpu0.BPredUnit.condIncorrect            698196                       # Number of conditional branches incorrect
system.cpu0.BPredUnit.BTBLookups             19919720                       # Number of BTB lookups
system.cpu0.BPredUnit.BTBHits                19395943                       # Number of BTB hits
system.cpu0.BPredUnit.BTBCorrect                    0                       # Number of correct BTB predictions (this stat may not work properly.
system.cpu0.BPredUnit.usedRAS                 1073318                       # Number of times the RAS was used to get a target.
system.cpu0.BPredUnit.RASInCorrect                981                       # Number of incorrect RAS predictions.
system.cpu0.fetch.icacheStallCycles           2235238                       # Number of cycles fetch is stalled on an Icache miss
system.cpu0.fetch.Insts                     195398298                       # Number of instructions fetch has processed
system.cpu0.fetch.Branches                   27721230                       # Number of branches that fetch encountered
system.cpu0.fetch.predictedBranches          20469261                       # Number of branches that fetch has predicted taken
system.cpu0.fetch.Cycles                     36392844                       # Number of cycles fetch has run and was not squashing or blocked
system.cpu0.fetch.SquashCycles                3270420                       # Number of cycles fetch has spent squashing
system.cpu0.fetch.BlockedCycles              20242947                       # Number of cycles fetch has spent blocked
system.cpu0.fetch.MiscStallCycles                 149                       # Number of cycles fetch has spent waiting on interrupts, or bad addresses, or out of MSHRs
system.cpu0.fetch.PendingTrapStallCycles         5142                       # Number of stall cycles due to pending traps
system.cpu0.fetch.CacheLines                 26877469                       # Number of cache lines fetched
system.cpu0.fetch.IcacheSquashes                14152                       # Number of outstanding Icache misses that were squashed
system.cpu0.fetch.rateDist::samples          61443866                       # Number of instructions fetched each cycle (Total)
system.cpu0.fetch.rateDist::mean             3.180111                       # Number of instructions fetched each cycle (Total)
system.cpu0.fetch.rateDist::stdev            3.160634                       # Number of instructions fetched each cycle (Total)
system.cpu0.fetch.rateDist::underflows              0      0.00%      0.00% # Number of instructions fetched each cycle (Total)
system.cpu0.fetch.rateDist::0                25051022     40.77%     40.77% # Number of instructions fetched each cycle (Total)
system.cpu0.fetch.rateDist::1                 3004011      4.89%     45.66% # Number of instructions fetched each cycle (Total)
system.cpu0.fetch.rateDist::2                 1228010      2.00%     47.66% # Number of instructions fetched each cycle (Total)
system.cpu0.fetch.rateDist::3                 1452714      2.36%     50.02% # Number of instructions fetched each cycle (Total)
system.cpu0.fetch.rateDist::4                 8511617     13.85%     63.88% # Number of instructions fetched each cycle (Total)
system.cpu0.fetch.rateDist::5                 7607727     12.38%     76.26% # Number of instructions fetched each cycle (Total)
system.cpu0.fetch.rateDist::6                 1182198      1.92%     78.18% # Number of instructions fetched each cycle (Total)
system.cpu0.fetch.rateDist::7                  850702      1.38%     79.57% # Number of instructions fetched each cycle (Total)
system.cpu0.fetch.rateDist::8                12555865     20.43%    100.00% # Number of instructions fetched each cycle (Total)
system.cpu0.fetch.rateDist::overflows               0      0.00%    100.00% # Number of instructions fetched each cycle (Total)
system.cpu0.fetch.rateDist::min_value               0                       # Number of instructions fetched each cycle (Total)
system.cpu0.fetch.rateDist::max_value               8                       # Number of instructions fetched each cycle (Total)
system.cpu0.fetch.rateDist::total            61443866                       # Number of instructions fetched each cycle (Total)
system.cpu0.fetch.branchRate                 0.450193                       # Number of branch fetches per cycle
system.cpu0.fetch.rate                       3.173269                       # Number of inst fetches per cycle
system.cpu0.decode.IdleCycles                 5908430                       # Number of cycles decode is idle
system.cpu0.decode.BlockedCycles             17244564                       # Number of cycles decode is blocked
system.cpu0.decode.RunCycles                 32878486                       # Number of cycles decode is running
system.cpu0.decode.UnblockCycles              2847573                       # Number of cycles decode is unblocking
system.cpu0.decode.SquashCycles               2564813                       # Number of cycles decode is squashing
system.cpu0.decode.BranchResolved             2561775                       # Number of times decode resolved a branch
system.cpu0.decode.BranchMispred                 2816                       # Number of times decode detected a branch misprediction
system.cpu0.decode.DecodedInsts             192136599                       # Number of instructions handled by decode
system.cpu0.decode.SquashedInsts                14270                       # Number of squashed instructions handled by decode
system.cpu0.rename.SquashCycles               2564813                       # Number of cycles rename is squashing
system.cpu0.rename.IdleCycles                 9248402                       # Number of cycles rename is idle
system.cpu0.rename.BlockCycles                9969136                       # Number of cycles rename is blocking
system.cpu0.rename.serializeStallCycles        516945                       # count of cycles rename stalled for serializing inst
system.cpu0.rename.RunCycles                 32310166                       # Number of cycles rename is running
system.cpu0.rename.UnblockCycles              6834404                       # Number of cycles rename is unblocking
system.cpu0.rename.RenamedInsts             188978140                       # Number of instructions processed by rename
system.cpu0.rename.ROBFullEvents                  437                       # Number of times rename has blocked due to ROB full
system.cpu0.rename.IQFullEvents                 64766                       # Number of times rename has blocked due to IQ full
system.cpu0.rename.LSQFullEvents              4616144                       # Number of times rename has blocked due to LSQ full
system.cpu0.rename.RenamedOperands          141050461                       # Number of destination operands rename has renamed
system.cpu0.rename.RenameLookups            257015786                       # Number of register rename lookups that rename has made
system.cpu0.rename.int_rename_lookups        94697422                       # Number of integer rename lookups
system.cpu0.rename.fp_rename_lookups        162318364                       # Number of floating rename lookups
system.cpu0.rename.CommittedMaps            123877186                       # Number of HB maps that are committed
system.cpu0.rename.UndoneMaps                17173275                       # Number of HB maps that are undone due to squashing
system.cpu0.rename.serializingInsts             39640                       # count of serializing insts renamed
system.cpu0.rename.tempSerializingInsts         14768                       # count of temporary serializing insts renamed
system.cpu0.rename.skidInsts                 25165488                       # count of insts added to the skid buffer
system.cpu0.memDep0.insertedLoads            37426598                       # Number of loads inserted to the mem dependence unit.
system.cpu0.memDep0.insertedStores           15410456                       # Number of stores inserted to the mem dependence unit.
system.cpu0.memDep0.conflictingLoads          2488983                       # Number of conflicting loads.
system.cpu0.memDep0.conflictingStores         1272321                       # Number of conflicting stores.
system.cpu0.iq.iqInstsAdded                 176572620                       # Number of instructions added to the IQ (excludes non-spec)
system.cpu0.iq.iqNonSpecInstsAdded              26971                       # Number of non-speculative instructions added to the IQ
system.cpu0.iq.iqInstsIssued                170810085                       # Number of instructions issued
system.cpu0.iq.iqSquashedInstsIssued           474872                       # Number of squashed instructions issued
system.cpu0.iq.iqSquashedInstsExamined       16347390                       # Number of squashed instructions iterated over during squash; mainly for profiling
system.cpu0.iq.iqSquashedOperandsExamined     10595881                       # Number of squashed operands that are examined and possibly removed from graph
system.cpu0.iq.iqSquashedNonSpecRemoved           757                       # Number of squashed non-spec instructions that were removed
system.cpu0.iq.issued_per_cycle::samples     61443866                       # Number of insts issued each cycle
system.cpu0.iq.issued_per_cycle::mean        2.779937                       # Number of insts issued each cycle
system.cpu0.iq.issued_per_cycle::stdev       2.068928                       # Number of insts issued each cycle
system.cpu0.iq.issued_per_cycle::underflows            0      0.00%      0.00% # Number of insts issued each cycle
system.cpu0.iq.issued_per_cycle::0           13652649     22.22%     22.22% # Number of insts issued each cycle
system.cpu0.iq.issued_per_cycle::1            6323177     10.29%     32.51% # Number of insts issued each cycle
system.cpu0.iq.issued_per_cycle::2            6147732     10.01%     42.52% # Number of insts issued each cycle
system.cpu0.iq.issued_per_cycle::3           11924282     19.41%     61.92% # Number of insts issued each cycle
system.cpu0.iq.issued_per_cycle::4            9022500     14.68%     76.61% # Number of insts issued each cycle
system.cpu0.iq.issued_per_cycle::5            7173699     11.68%     88.28% # Number of insts issued each cycle
system.cpu0.iq.issued_per_cycle::6            6101521      9.93%     98.21% # Number of insts issued each cycle
system.cpu0.iq.issued_per_cycle::7             935471      1.52%     99.73% # Number of insts issued each cycle
system.cpu0.iq.issued_per_cycle::8             162835      0.27%    100.00% # Number of insts issued each cycle
system.cpu0.iq.issued_per_cycle::overflows            0      0.00%    100.00% # Number of insts issued each cycle
system.cpu0.iq.issued_per_cycle::min_value            0                       # Number of insts issued each cycle
system.cpu0.iq.issued_per_cycle::max_value            8                       # Number of insts issued each cycle
system.cpu0.iq.issued_per_cycle::total       61443866                       # Number of insts issued each cycle
system.cpu0.iq.fu_full::No_OpClass                  0      0.00%      0.00% # attempts to use FU when none available
system.cpu0.iq.fu_full::IntAlu                 100980      3.36%      3.36% # attempts to use FU when none available
system.cpu0.iq.fu_full::IntMult                     0      0.00%      3.36% # attempts to use FU when none available
system.cpu0.iq.fu_full::IntDiv                      0      0.00%      3.36% # attempts to use FU when none available
system.cpu0.iq.fu_full::FloatAdd               210214      7.00%     10.37% # attempts to use FU when none available
system.cpu0.iq.fu_full::FloatCmp                    4      0.00%     10.37% # attempts to use FU when none available
system.cpu0.iq.fu_full::FloatCvt                    0      0.00%     10.37% # attempts to use FU when none available
system.cpu0.iq.fu_full::FloatMult             1259260     41.95%     52.31% # attempts to use FU when none available
system.cpu0.iq.fu_full::FloatDiv               186250      6.20%     58.52% # attempts to use FU when none available
system.cpu0.iq.fu_full::FloatSqrt                   0      0.00%     58.52% # attempts to use FU when none available
system.cpu0.iq.fu_full::SimdAdd                     0      0.00%     58.52% # attempts to use FU when none available
system.cpu0.iq.fu_full::SimdAddAcc                  0      0.00%     58.52% # attempts to use FU when none available
system.cpu0.iq.fu_full::SimdAlu                     0      0.00%     58.52% # attempts to use FU when none available
system.cpu0.iq.fu_full::SimdCmp                     0      0.00%     58.52% # attempts to use FU when none available
system.cpu0.iq.fu_full::SimdCvt                     0      0.00%     58.52% # attempts to use FU when none available
system.cpu0.iq.fu_full::SimdMisc                    0      0.00%     58.52% # attempts to use FU when none available
system.cpu0.iq.fu_full::SimdMult                    0      0.00%     58.52% # attempts to use FU when none available
system.cpu0.iq.fu_full::SimdMultAcc                 0      0.00%     58.52% # attempts to use FU when none available
system.cpu0.iq.fu_full::SimdShift                   0      0.00%     58.52% # attempts to use FU when none available
system.cpu0.iq.fu_full::SimdShiftAcc                0      0.00%     58.52% # attempts to use FU when none available
system.cpu0.iq.fu_full::SimdSqrt                    0      0.00%     58.52% # attempts to use FU when none available
system.cpu0.iq.fu_full::SimdFloatAdd                0      0.00%     58.52% # attempts to use FU when none available
system.cpu0.iq.fu_full::SimdFloatAlu                0      0.00%     58.52% # attempts to use FU when none available
system.cpu0.iq.fu_full::SimdFloatCmp                0      0.00%     58.52% # attempts to use FU when none available
system.cpu0.iq.fu_full::SimdFloatCvt                0      0.00%     58.52% # attempts to use FU when none available
system.cpu0.iq.fu_full::SimdFloatDiv                0      0.00%     58.52% # attempts to use FU when none available
system.cpu0.iq.fu_full::SimdFloatMisc               0      0.00%     58.52% # attempts to use FU when none available
system.cpu0.iq.fu_full::SimdFloatMult               0      0.00%     58.52% # attempts to use FU when none available
system.cpu0.iq.fu_full::SimdFloatMultAcc            0      0.00%     58.52% # attempts to use FU when none available
system.cpu0.iq.fu_full::SimdFloatSqrt               0      0.00%     58.52% # attempts to use FU when none available
system.cpu0.iq.fu_full::MemRead               1143996     38.11%     96.63% # attempts to use FU when none available
system.cpu0.iq.fu_full::MemWrite               101245      3.37%    100.00% # attempts to use FU when none available
system.cpu0.iq.fu_full::IprAccess                   0      0.00%    100.00% # attempts to use FU when none available
system.cpu0.iq.fu_full::InstPrefetch                0      0.00%    100.00% # attempts to use FU when none available
system.cpu0.iq.FU_type_0::No_OpClass                0      0.00%      0.00% # Type of FU issued
system.cpu0.iq.FU_type_0::IntAlu             64178053     37.57%     37.57% # Type of FU issued
system.cpu0.iq.FU_type_0::IntMult                9336      0.01%     37.58% # Type of FU issued
system.cpu0.iq.FU_type_0::IntDiv                    0      0.00%     37.58% # Type of FU issued
[...]
system.cpu3.icache.overall_mshr_miss_latency::total     16594000                       # number of overall MSHR miss cycles
system.cpu3.icache.ReadReq_mshr_miss_rate::cpu3.inst     0.000028                       # mshr miss rate for ReadReq accesses
system.cpu3.icache.ReadReq_mshr_miss_rate::total     0.000028                       # mshr miss rate for ReadReq accesses
system.cpu3.icache.demand_mshr_miss_rate::cpu3.inst     0.000028                       # mshr miss rate for demand accesses
system.cpu3.icache.demand_mshr_miss_rate::total     0.000028                       # mshr miss rate for demand accesses
system.cpu3.icache.overall_mshr_miss_rate::cpu3.inst     0.000028                       # mshr miss rate for overall accesses
system.cpu3.icache.overall_mshr_miss_rate::total     0.000028                       # mshr miss rate for overall accesses
system.cpu3.icache.ReadReq_avg_mshr_miss_latency::cpu3.inst 24878.560720                       # average ReadReq mshr miss latency
system.cpu3.icache.ReadReq_avg_mshr_miss_latency::total 24878.560720                       # average ReadReq mshr miss latency
system.cpu3.icache.demand_avg_mshr_miss_latency::cpu3.inst 24878.560720                       # average overall mshr miss latency
system.cpu3.icache.demand_avg_mshr_miss_latency::total 24878.560720                       # average overall mshr miss latency
system.cpu3.icache.overall_avg_mshr_miss_latency::cpu3.inst 24878.560720                       # average overall mshr miss latency
system.cpu3.icache.overall_avg_mshr_miss_latency::total 24878.560720                       # average overall mshr miss latency
system.cpu3.icache.no_allocate_misses               0                       # Number of misses that were no-allocate
system.cpu3.dcache.replacements                 58992                       # number of replacements
system.cpu3.dcache.tagsinuse               828.239079                       # Cycle average of tags in use
system.cpu3.dcache.total_refs                42468509                       # Total number of references to valid blocks.
system.cpu3.dcache.sampled_refs                 59980                       # Sample count of references to valid blocks.
system.cpu3.dcache.avg_refs                708.044498                       # Average number of references to valid blocks.
system.cpu3.dcache.warmup_cycle                     0                       # Cycle when the warmup percentage was hit.
system.cpu3.dcache.occ_blocks::cpu3.data   828.239079                       # Average occupied blocks per requestor
system.cpu3.dcache.occ_percent::cpu3.data     0.808827                       # Average percentage of cache occupancy
system.cpu3.dcache.occ_percent::total        0.808827                       # Average percentage of cache occupancy
system.cpu3.dcache.ReadReq_hits::cpu3.data     30004458                       # number of ReadReq hits
system.cpu3.dcache.ReadReq_hits::total       30004458                       # number of ReadReq hits
system.cpu3.dcache.WriteReq_hits::cpu3.data     12463138                       # number of WriteReq hits
system.cpu3.dcache.WriteReq_hits::total      12463138                       # number of WriteReq hits
system.cpu3.dcache.LoadLockedReq_hits::cpu3.data           99                       # number of LoadLockedReq hits
system.cpu3.dcache.LoadLockedReq_hits::total           99                       # number of LoadLockedReq hits
system.cpu3.dcache.StoreCondReq_hits::cpu3.data           58                       # number of StoreCondReq hits
system.cpu3.dcache.StoreCondReq_hits::total           58                       # number of StoreCondReq hits
system.cpu3.dcache.demand_hits::cpu3.data     42467596                       # number of demand (read+write) hits
system.cpu3.dcache.demand_hits::total        42467596                       # number of demand (read+write) hits
system.cpu3.dcache.overall_hits::cpu3.data     42467596                       # number of overall hits
system.cpu3.dcache.overall_hits::total       42467596                       # number of overall hits
system.cpu3.dcache.ReadReq_misses::cpu3.data       171519                       # number of ReadReq misses
system.cpu3.dcache.ReadReq_misses::total       171519                       # number of ReadReq misses
system.cpu3.dcache.WriteReq_misses::cpu3.data         5412                       # number of WriteReq misses
system.cpu3.dcache.WriteReq_misses::total         5412                       # number of WriteReq misses
system.cpu3.dcache.LoadLockedReq_misses::cpu3.data           25                       # number of LoadLockedReq misses
system.cpu3.dcache.LoadLockedReq_misses::total           25                       # number of LoadLockedReq misses
system.cpu3.dcache.StoreCondReq_misses::cpu3.data           52                       # number of StoreCondReq misses
system.cpu3.dcache.StoreCondReq_misses::total           52                       # number of StoreCondReq misses
system.cpu3.dcache.demand_misses::cpu3.data       176931                       # number of demand (read+write) misses
system.cpu3.dcache.demand_misses::total        176931                       # number of demand (read+write) misses
system.cpu3.dcache.overall_misses::cpu3.data       176931                       # number of overall misses
system.cpu3.dcache.overall_misses::total       176931                       # number of overall misses
system.cpu3.dcache.ReadReq_miss_latency::cpu3.data   2674185000                       # number of ReadReq miss cycles
system.cpu3.dcache.ReadReq_miss_latency::total   2674185000                       # number of ReadReq miss cycles
system.cpu3.dcache.WriteReq_miss_latency::cpu3.data    250009996                       # number of WriteReq miss cycles
system.cpu3.dcache.WriteReq_miss_latency::total    250009996                       # number of WriteReq miss cycles
system.cpu3.dcache.LoadLockedReq_miss_latency::cpu3.data       243000                       # number of LoadLockedReq miss cycles
system.cpu3.dcache.LoadLockedReq_miss_latency::total       243000                       # number of LoadLockedReq miss cycles
system.cpu3.dcache.StoreCondReq_miss_latency::cpu3.data       572000                       # number of StoreCondReq miss cycles
system.cpu3.dcache.StoreCondReq_miss_latency::total       572000                       # number of StoreCondReq miss cycles
system.cpu3.dcache.demand_miss_latency::cpu3.data   2924194996                       # number of demand (read+write) miss cycles
system.cpu3.dcache.demand_miss_latency::total   2924194996                       # number of demand (read+write) miss cycles
system.cpu3.dcache.overall_miss_latency::cpu3.data   2924194996                       # number of overall miss cycles
system.cpu3.dcache.overall_miss_latency::total   2924194996                       # number of overall miss cycles
system.cpu3.dcache.ReadReq_accesses::cpu3.data     30175977                       # number of ReadReq accesses(hits+misses)
system.cpu3.dcache.ReadReq_accesses::total     30175977                       # number of ReadReq accesses(hits+misses)
system.cpu3.dcache.WriteReq_accesses::cpu3.data     12468550                       # number of WriteReq accesses(hits+misses)
system.cpu3.dcache.WriteReq_accesses::total     12468550                       # number of WriteReq accesses(hits+misses)
system.cpu3.dcache.LoadLockedReq_accesses::cpu3.data          124                       # number of LoadLockedReq accesses(hits+misses)
system.cpu3.dcache.LoadLockedReq_accesses::total          124                       # number of LoadLockedReq accesses(hits+misses)
system.cpu3.dcache.StoreCondReq_accesses::cpu3.data          110                       # number of StoreCondReq accesses(hits+misses)
system.cpu3.dcache.StoreCondReq_accesses::total          110                       # number of StoreCondReq accesses(hits+misses)
system.cpu3.dcache.demand_accesses::cpu3.data     42644527                       # number of demand (read+write) accesses
system.cpu3.dcache.demand_accesses::total     42644527                       # number of demand (read+write) accesses
system.cpu3.dcache.overall_accesses::cpu3.data     42644527                       # number of overall (read+write) accesses
system.cpu3.dcache.overall_accesses::total     42644527                       # number of overall (read+write) accesses
system.cpu3.dcache.ReadReq_miss_rate::cpu3.data     0.005684                       # miss rate for ReadReq accesses
system.cpu3.dcache.ReadReq_miss_rate::total     0.005684                       # miss rate for ReadReq accesses
system.cpu3.dcache.WriteReq_miss_rate::cpu3.data     0.000434                       # miss rate for WriteReq accesses
system.cpu3.dcache.WriteReq_miss_rate::total     0.000434                       # miss rate for WriteReq accesses
system.cpu3.dcache.LoadLockedReq_miss_rate::cpu3.data     0.201613                       # miss rate for LoadLockedReq accesses
system.cpu3.dcache.LoadLockedReq_miss_rate::total     0.201613                       # miss rate for LoadLockedReq accesses
system.cpu3.dcache.StoreCondReq_miss_rate::cpu3.data     0.472727                       # miss rate for StoreCondReq accesses
system.cpu3.dcache.StoreCondReq_miss_rate::total     0.472727                       # miss rate for StoreCondReq accesses
system.cpu3.dcache.demand_miss_rate::cpu3.data     0.004149                       # miss rate for demand accesses
system.cpu3.dcache.demand_miss_rate::total     0.004149                       # miss rate for demand accesses
system.cpu3.dcache.overall_miss_rate::cpu3.data     0.004149                       # miss rate for overall accesses
system.cpu3.dcache.overall_miss_rate::total     0.004149                       # miss rate for overall accesses
system.cpu3.dcache.ReadReq_avg_miss_latency::cpu3.data 15591.188148                       # average ReadReq miss latency
system.cpu3.dcache.ReadReq_avg_miss_latency::total 15591.188148                       # average ReadReq miss latency
system.cpu3.dcache.WriteReq_avg_miss_latency::cpu3.data 46195.490761                       # average WriteReq miss latency
system.cpu3.dcache.WriteReq_avg_miss_latency::total 46195.490761                       # average WriteReq miss latency
system.cpu3.dcache.LoadLockedReq_avg_miss_latency::cpu3.data         9720                       # average LoadLockedReq miss latency
system.cpu3.dcache.LoadLockedReq_avg_miss_latency::total         9720                       # average LoadLockedReq miss latency
system.cpu3.dcache.StoreCondReq_avg_miss_latency::cpu3.data        11000                       # average StoreCondReq miss latency
system.cpu3.dcache.StoreCondReq_avg_miss_latency::total        11000                       # average StoreCondReq miss latency
system.cpu3.dcache.demand_avg_miss_latency::cpu3.data 16527.318537                       # average overall miss latency
system.cpu3.dcache.demand_avg_miss_latency::total 16527.318537                       # average overall miss latency
system.cpu3.dcache.overall_avg_miss_latency::cpu3.data 16527.318537                       # average overall miss latency
system.cpu3.dcache.overall_avg_miss_latency::total 16527.318537                       # average overall miss latency
system.cpu3.dcache.blocked_cycles::no_mshrs            0                       # number of cycles access was blocked
system.cpu3.dcache.blocked_cycles::no_targets     48238000                       # number of cycles access was blocked
system.cpu3.dcache.blocked::no_mshrs                0                       # number of cycles access was blocked
system.cpu3.dcache.blocked::no_targets           7014                       # number of cycles access was blocked
system.cpu3.dcache.avg_blocked_cycles::no_mshrs          nan                       # average number of cycles each access was blocked
system.cpu3.dcache.avg_blocked_cycles::no_targets  6877.388081                       # average number of cycles each access was blocked
system.cpu3.dcache.fast_writes                      0                       # number of fast writes performed
system.cpu3.dcache.cache_copies                     0                       # number of cache copies performed
system.cpu3.dcache.writebacks::writebacks        16636                       # number of writebacks
system.cpu3.dcache.writebacks::total            16636                       # number of writebacks
system.cpu3.dcache.ReadReq_mshr_hits::cpu3.data       112096                       # number of ReadReq MSHR hits
system.cpu3.dcache.ReadReq_mshr_hits::total       112096                       # number of ReadReq MSHR hits
system.cpu3.dcache.WriteReq_mshr_hits::cpu3.data         3804                       # number of WriteReq MSHR hits
system.cpu3.dcache.WriteReq_mshr_hits::total         3804                       # number of WriteReq MSHR hits
system.cpu3.dcache.LoadLockedReq_mshr_hits::cpu3.data            2                       # number of LoadLockedReq MSHR hits
system.cpu3.dcache.LoadLockedReq_mshr_hits::total            2                       # number of LoadLockedReq MSHR hits
system.cpu3.dcache.demand_mshr_hits::cpu3.data       115900                       # number of demand (read+write) MSHR hits
system.cpu3.dcache.demand_mshr_hits::total       115900                       # number of demand (read+write) MSHR hits
system.cpu3.dcache.overall_mshr_hits::cpu3.data       115900                       # number of overall MSHR hits
system.cpu3.dcache.overall_mshr_hits::total       115900                       # number of overall MSHR hits
system.cpu3.dcache.ReadReq_mshr_misses::cpu3.data        59423                       # number of ReadReq MSHR misses
system.cpu3.dcache.ReadReq_mshr_misses::total        59423                       # number of ReadReq MSHR misses
system.cpu3.dcache.WriteReq_mshr_misses::cpu3.data         1608                       # number of WriteReq MSHR misses
system.cpu3.dcache.WriteReq_mshr_misses::total         1608                       # number of WriteReq MSHR misses
system.cpu3.dcache.LoadLockedReq_mshr_misses::cpu3.data           23                       # number of LoadLockedReq MSHR misses
system.cpu3.dcache.LoadLockedReq_mshr_misses::total           23                       # number of LoadLockedReq MSHR misses
system.cpu3.dcache.StoreCondReq_mshr_misses::cpu3.data           52                       # number of StoreCondReq MSHR misses
system.cpu3.dcache.StoreCondReq_mshr_misses::total           52                       # number of StoreCondReq MSHR misses
system.cpu3.dcache.demand_mshr_misses::cpu3.data        61031                       # number of demand (read+write) MSHR misses
system.cpu3.dcache.demand_mshr_misses::total        61031                       # number of demand (read+write) MSHR misses
system.cpu3.dcache.overall_mshr_misses::cpu3.data        61031                       # number of overall MSHR misses
system.cpu3.dcache.overall_mshr_misses::total        61031                       # number of overall MSHR misses
system.cpu3.dcache.ReadReq_mshr_miss_latency::cpu3.data   1023525000                       # number of ReadReq MSHR miss cycles
system.cpu3.dcache.ReadReq_mshr_miss_latency::total   1023525000                       # number of ReadReq MSHR miss cycles
system.cpu3.dcache.WriteReq_mshr_miss_latency::cpu3.data     63626998                       # number of WriteReq MSHR miss cycles
system.cpu3.dcache.WriteReq_mshr_miss_latency::total     63626998                       # number of WriteReq MSHR miss cycles
system.cpu3.dcache.LoadLockedReq_mshr_miss_latency::cpu3.data       102000                       # number of LoadLockedReq MSHR miss cycles
system.cpu3.dcache.LoadLockedReq_mshr_miss_latency::total       102000                       # number of LoadLockedReq MSHR miss cycles
system.cpu3.dcache.StoreCondReq_mshr_miss_latency::cpu3.data       416000                       # number of StoreCondReq MSHR miss cycles
system.cpu3.dcache.StoreCondReq_mshr_miss_latency::total       416000                       # number of StoreCondReq MSHR miss cycles
system.cpu3.dcache.demand_mshr_miss_latency::cpu3.data   1087151998                       # number of demand (read+write) MSHR miss cycles
system.cpu3.dcache.demand_mshr_miss_latency::total   1087151998                       # number of demand (read+write) MSHR miss cycles
system.cpu3.dcache.overall_mshr_miss_latency::cpu3.data   1087151998                       # number of overall MSHR miss cycles
system.cpu3.dcache.overall_mshr_miss_latency::total   1087151998                       # number of overall MSHR miss cycles
system.cpu3.dcache.ReadReq_mshr_miss_rate::cpu3.data     0.001969                       # mshr miss rate for ReadReq accesses
system.cpu3.dcache.ReadReq_mshr_miss_rate::total     0.001969                       # mshr miss rate for ReadReq accesses
system.cpu3.dcache.WriteReq_mshr_miss_rate::cpu3.data     0.000129                       # mshr miss rate for WriteReq accesses
system.cpu3.dcache.WriteReq_mshr_miss_rate::total     0.000129                       # mshr miss rate for WriteReq accesses
system.cpu3.dcache.LoadLockedReq_mshr_miss_rate::cpu3.data     0.185484                       # mshr miss rate for LoadLockedReq accesses
system.cpu3.dcache.LoadLockedReq_mshr_miss_rate::total     0.185484                       # mshr miss rate for LoadLockedReq accesses
system.cpu3.dcache.StoreCondReq_mshr_miss_rate::cpu3.data     0.472727                       # mshr miss rate for StoreCondReq accesses
system.cpu3.dcache.StoreCondReq_mshr_miss_rate::total     0.472727                       # mshr miss rate for StoreCondReq accesses
system.cpu3.dcache.demand_mshr_miss_rate::cpu3.data     0.001431                       # mshr miss rate for demand accesses
system.cpu3.dcache.demand_mshr_miss_rate::total     0.001431                       # mshr miss rate for demand accesses
system.cpu3.dcache.overall_mshr_miss_rate::cpu3.data     0.001431                       # mshr miss rate for overall accesses
system.cpu3.dcache.overall_mshr_miss_rate::total     0.001431                       # mshr miss rate for overall accesses
system.cpu3.dcache.ReadReq_avg_mshr_miss_latency::cpu3.data 17224.391229                       # average ReadReq mshr miss latency
system.cpu3.dcache.ReadReq_avg_mshr_miss_latency::total 17224.391229                       # average ReadReq mshr miss latency
system.cpu3.dcache.WriteReq_avg_mshr_miss_latency::cpu3.data 39569.028607                       # average WriteReq mshr miss latency
system.cpu3.dcache.WriteReq_avg_mshr_miss_latency::total 39569.028607                       # average WriteReq mshr miss latency
system.cpu3.dcache.LoadLockedReq_avg_mshr_miss_latency::cpu3.data  4434.782609                       # average LoadLockedReq mshr miss latency
system.cpu3.dcache.LoadLockedReq_avg_mshr_miss_latency::total  4434.782609                       # average LoadLockedReq mshr miss latency
system.cpu3.dcache.StoreCondReq_avg_mshr_miss_latency::cpu3.data         8000                       # average StoreCondReq mshr miss latency
system.cpu3.dcache.StoreCondReq_avg_mshr_miss_latency::total         8000                       # average StoreCondReq mshr miss latency
system.cpu3.dcache.demand_avg_mshr_miss_latency::cpu3.data 17813.111337                       # average overall mshr miss latency
system.cpu3.dcache.demand_avg_mshr_miss_latency::total 17813.111337                       # average overall mshr miss latency
system.cpu3.dcache.overall_avg_mshr_miss_latency::cpu3.data 17813.111337                       # average overall mshr miss latency
system.cpu3.dcache.overall_avg_mshr_miss_latency::total 17813.111337                       # average overall mshr miss latency
system.cpu3.dcache.no_allocate_misses               0                       # Number of misses that were no-allocate

---------- End Simulation Statistics   ----------
