
---------- Begin Simulation Statistics ----------
sim_seconds                                  0.037577                       # Number of seconds simulated
sim_ticks                                 37576969000                       # Number of ticks simulated
final_tick                                37576969000                       # Number of ticks from beginning of simulation (restored from checkpoints and never reset)
sim_freq                                 1000000000000                       # Frequency of simulated ticks
host_inst_rate                                 124733                       # Simulator instruction rate (inst/s)
host_op_rate                                   191681                       # Simulator op (including micro ops) rate (op/s)
host_tick_rate                               51696004                       # Simulator tick rate (ticks/s)
host_mem_usage                                 418516                       # Number of bytes of host memory used
host_seconds                                   726.88                       # Real time elapsed on the host
sim_insts                                    90666196                       # Number of instructions simulated
sim_ops                                     139329835                       # Number of ops (including micro ops) simulated
system.ruby.l2_cntrl5.L2cache.demand_hits        36697                       # Number of cache demand hits
system.ruby.l2_cntrl5.L2cache.demand_misses        23667                       # Number of cache demand misses
system.ruby.l2_cntrl5.L2cache.demand_accesses        60364                       # Number of cache demand accesses
system.ruby.l2_cntrl4.L2cache.demand_hits        37210                       # Number of cache demand hits
system.ruby.l2_cntrl4.L2cache.demand_misses        23595                       # Number of cache demand misses
system.ruby.l2_cntrl4.L2cache.demand_accesses        60805                       # Number of cache demand accesses
system.ruby.l2_cntrl11.L2cache.demand_hits        37349                       # Number of cache demand hits
system.ruby.l2_cntrl11.L2cache.demand_misses        23843                       # Number of cache demand misses
system.ruby.l2_cntrl11.L2cache.demand_accesses        61192                       # Number of cache demand accesses
system.ruby.l2_cntrl10.L2cache.demand_hits        37636                       # Number of cache demand hits
system.ruby.l2_cntrl10.L2cache.demand_misses        23779                       # Number of cache demand misses
system.ruby.l2_cntrl10.L2cache.demand_accesses        61415                       # Number of cache demand accesses
system.ruby.l2_cntrl13.L2cache.demand_hits        37789                       # Number of cache demand hits
system.ruby.l2_cntrl13.L2cache.demand_misses        23916                       # Number of cache demand misses
system.ruby.l2_cntrl13.L2cache.demand_accesses        61705                       # Number of cache demand accesses
system.ruby.l2_cntrl12.L2cache.demand_hits        37577                       # Number of cache demand hits
system.ruby.l2_cntrl12.L2cache.demand_misses        23772                       # Number of cache demand misses
system.ruby.l2_cntrl12.L2cache.demand_accesses        61349                       # Number of cache demand accesses
system.ruby.l2_cntrl15.L2cache.demand_hits        37567                       # Number of cache demand hits
system.ruby.l2_cntrl15.L2cache.demand_misses        23875                       # Number of cache demand misses
system.ruby.l2_cntrl15.L2cache.demand_accesses        61442                       # Number of cache demand accesses
system.ruby.l2_cntrl14.L2cache.demand_hits        37849                       # Number of cache demand hits
system.ruby.l2_cntrl14.L2cache.demand_misses        23743                       # Number of cache demand misses
system.ruby.l2_cntrl14.L2cache.demand_accesses        61592                       # Number of cache demand accesses
system.ruby.l1_cntrl4.L1Dcache.demand_hits       695856                       # Number of cache demand hits
system.ruby.l1_cntrl4.L1Dcache.demand_misses        63119                       # Number of cache demand misses
system.ruby.l1_cntrl4.L1Dcache.demand_accesses       758975                       # Number of cache demand accesses
system.ruby.l1_cntrl4.L1Icache.demand_hits      7944679                       # Number of cache demand hits
system.ruby.l1_cntrl4.L1Icache.demand_misses          158                       # Number of cache demand misses
system.ruby.l1_cntrl4.L1Icache.demand_accesses      7944837                       # Number of cache demand accesses
system.ruby.l1_cntrl5.L1Dcache.demand_hits       698478                       # Number of cache demand hits
system.ruby.l1_cntrl5.L1Dcache.demand_misses        58971                       # Number of cache demand misses
system.ruby.l1_cntrl5.L1Dcache.demand_accesses       757449                       # Number of cache demand accesses
system.ruby.l1_cntrl5.L1Icache.demand_hits      7949387                       # Number of cache demand hits
system.ruby.l1_cntrl5.L1Icache.demand_misses          139                       # Number of cache demand misses
system.ruby.l1_cntrl5.L1Icache.demand_accesses      7949526                       # Number of cache demand accesses
system.ruby.l1_cntrl6.L1Dcache.demand_hits       691570                       # Number of cache demand hits
system.ruby.l1_cntrl6.L1Dcache.demand_misses        61016                       # Number of cache demand misses
system.ruby.l1_cntrl6.L1Dcache.demand_accesses       752586                       # Number of cache demand accesses
system.ruby.l1_cntrl6.L1Icache.demand_hits      7938600                       # Number of cache demand hits
system.ruby.l1_cntrl6.L1Icache.demand_misses          163                       # Number of cache demand misses
system.ruby.l1_cntrl6.L1Icache.demand_accesses      7938763                       # Number of cache demand accesses
system.ruby.l1_cntrl7.L1Dcache.demand_hits       705853                       # Number of cache demand hits
system.ruby.l1_cntrl7.L1Dcache.demand_misses        59451                       # Number of cache demand misses
system.ruby.l1_cntrl7.L1Dcache.demand_accesses       765304                       # Number of cache demand accesses
system.ruby.l1_cntrl7.L1Icache.demand_hits      7969319                       # Number of cache demand hits
system.ruby.l1_cntrl7.L1Icache.demand_misses          149                       # Number of cache demand misses
system.ruby.l1_cntrl7.L1Icache.demand_accesses      7969468                       # Number of cache demand accesses
system.ruby.l1_cntrl0.L1Dcache.demand_hits       709593                       # Number of cache demand hits
system.ruby.l1_cntrl0.L1Dcache.demand_misses        61855                       # Number of cache demand misses
system.ruby.l1_cntrl0.L1Dcache.demand_accesses       771448                       # Number of cache demand accesses
system.ruby.l1_cntrl0.L1Icache.demand_hits      8009658                       # Number of cache demand hits
system.ruby.l1_cntrl0.L1Icache.demand_misses          696                       # Number of cache demand misses
system.ruby.l1_cntrl0.L1Icache.demand_accesses      8010354                       # Number of cache demand accesses
system.ruby.l1_cntrl1.L1Dcache.demand_hits       723813                       # Number of cache demand hits
system.ruby.l1_cntrl1.L1Dcache.demand_misses        60266                       # Number of cache demand misses
system.ruby.l1_cntrl1.L1Dcache.demand_accesses       784079                       # Number of cache demand accesses
system.ruby.l1_cntrl1.L1Icache.demand_hits      7997652                       # Number of cache demand hits
system.ruby.l1_cntrl1.L1Icache.demand_misses          152                       # Number of cache demand misses
system.ruby.l1_cntrl1.L1Icache.demand_accesses      7997804                       # Number of cache demand accesses
system.ruby.l1_cntrl2.L1Dcache.demand_hits       708500                       # Number of cache demand hits
system.ruby.l1_cntrl2.L1Dcache.demand_misses        61737                       # Number of cache demand misses
system.ruby.l1_cntrl2.L1Dcache.demand_accesses       770237                       # Number of cache demand accesses
system.ruby.l1_cntrl2.L1Icache.demand_hits      7969572                       # Number of cache demand hits
system.ruby.l1_cntrl2.L1Icache.demand_misses          159                       # Number of cache demand misses
system.ruby.l1_cntrl2.L1Icache.demand_accesses      7969731                       # Number of cache demand accesses
system.ruby.l1_cntrl3.L1Dcache.demand_hits       697520                       # Number of cache demand hits
system.ruby.l1_cntrl3.L1Dcache.demand_misses        59570                       # Number of cache demand misses
system.ruby.l1_cntrl3.L1Dcache.demand_accesses       757090                       # Number of cache demand accesses
system.ruby.l1_cntrl3.L1Icache.demand_hits      7949320                       # Number of cache demand hits
system.ruby.l1_cntrl3.L1Icache.demand_misses          154                       # Number of cache demand misses
system.ruby.l1_cntrl3.L1Icache.demand_accesses      7949474                       # Number of cache demand accesses
system.ruby.l2_cntrl1.L2cache.demand_hits        36886                       # Number of cache demand hits
system.ruby.l2_cntrl1.L2cache.demand_misses        26366                       # Number of cache demand misses
system.ruby.l2_cntrl1.L2cache.demand_accesses        63252                       # Number of cache demand accesses
system.ruby.l2_cntrl0.L2cache.demand_hits        37957                       # Number of cache demand hits
system.ruby.l2_cntrl0.L2cache.demand_misses        23810                       # Number of cache demand misses
system.ruby.l2_cntrl0.L2cache.demand_accesses        61767                       # Number of cache demand accesses
system.ruby.l2_cntrl3.L2cache.demand_hits        36647                       # Number of cache demand hits
system.ruby.l2_cntrl3.L2cache.demand_misses        23632                       # Number of cache demand misses
system.ruby.l2_cntrl3.L2cache.demand_accesses        60279                       # Number of cache demand accesses
system.ruby.l2_cntrl2.L2cache.demand_hits        36977                       # Number of cache demand hits
system.ruby.l2_cntrl2.L2cache.demand_misses        23910                       # Number of cache demand misses
system.ruby.l2_cntrl2.L2cache.demand_accesses        60887                       # Number of cache demand accesses
system.ruby.l1_cntrl8.L1Dcache.demand_hits       681599                       # Number of cache demand hits
system.ruby.l1_cntrl8.L1Dcache.demand_misses        64473                       # Number of cache demand misses
system.ruby.l1_cntrl8.L1Dcache.demand_accesses       746072                       # Number of cache demand accesses
system.ruby.l1_cntrl8.L1Icache.demand_hits      7917132                       # Number of cache demand hits
system.ruby.l1_cntrl8.L1Icache.demand_misses          148                       # Number of cache demand misses
system.ruby.l1_cntrl8.L1Icache.demand_accesses      7917280                       # Number of cache demand accesses
system.ruby.l1_cntrl9.L1Dcache.demand_hits       721723                       # Number of cache demand hits
system.ruby.l1_cntrl9.L1Dcache.demand_misses        59730                       # Number of cache demand misses
system.ruby.l1_cntrl9.L1Dcache.demand_accesses       781453                       # Number of cache demand accesses
system.ruby.l1_cntrl9.L1Icache.demand_hits      7997482                       # Number of cache demand hits
system.ruby.l1_cntrl9.L1Icache.demand_misses          148                       # Number of cache demand misses
system.ruby.l1_cntrl9.L1Icache.demand_accesses      7997630                       # Number of cache demand accesses
system.ruby.l2_cntrl7.L2cache.demand_hits        37127                       # Number of cache demand hits
system.ruby.l2_cntrl7.L2cache.demand_misses        23436                       # Number of cache demand misses
system.ruby.l2_cntrl7.L2cache.demand_accesses        60563                       # Number of cache demand accesses
system.ruby.l2_cntrl6.L2cache.demand_hits        36868                       # Number of cache demand hits
system.ruby.l2_cntrl6.L2cache.demand_misses        23498                       # Number of cache demand misses
system.ruby.l2_cntrl6.L2cache.demand_accesses        60366                       # Number of cache demand accesses
system.ruby.l1_cntrl14.L1Dcache.demand_hits       701866                       # Number of cache demand hits
system.ruby.l1_cntrl14.L1Dcache.demand_misses        59903                       # Number of cache demand misses
system.ruby.l1_cntrl14.L1Dcache.demand_accesses       761769                       # Number of cache demand accesses
system.ruby.l1_cntrl14.L1Icache.demand_hits      7966497                       # Number of cache demand hits
system.ruby.l1_cntrl14.L1Icache.demand_misses          146                       # Number of cache demand misses
system.ruby.l1_cntrl14.L1Icache.demand_accesses      7966643                       # Number of cache demand accesses
system.ruby.l1_cntrl15.L1Dcache.demand_hits       690300                       # Number of cache demand hits
system.ruby.l1_cntrl15.L1Dcache.demand_misses        61631                       # Number of cache demand misses
system.ruby.l1_cntrl15.L1Dcache.demand_accesses       751931                       # Number of cache demand accesses
system.ruby.l1_cntrl15.L1Icache.demand_hits      7960312                       # Number of cache demand hits
system.ruby.l1_cntrl15.L1Icache.demand_misses          155                       # Number of cache demand misses
system.ruby.l1_cntrl15.L1Icache.demand_accesses      7960467                       # Number of cache demand accesses
system.ruby.l1_cntrl12.L1Dcache.demand_hits       695064                       # Number of cache demand hits
system.ruby.l1_cntrl12.L1Dcache.demand_misses        63204                       # Number of cache demand misses
system.ruby.l1_cntrl12.L1Dcache.demand_accesses       758268                       # Number of cache demand accesses
system.ruby.l1_cntrl12.L1Icache.demand_hits      7947545                       # Number of cache demand hits
system.ruby.l1_cntrl12.L1Icache.demand_misses          152                       # Number of cache demand misses
system.ruby.l1_cntrl12.L1Icache.demand_accesses      7947697                       # Number of cache demand accesses
system.ruby.l1_cntrl13.L1Dcache.demand_hits       695566                       # Number of cache demand hits
system.ruby.l1_cntrl13.L1Dcache.demand_misses        59601                       # Number of cache demand misses
system.ruby.l1_cntrl13.L1Dcache.demand_accesses       755167                       # Number of cache demand accesses
system.ruby.l1_cntrl13.L1Icache.demand_hits      7949047                       # Number of cache demand hits
system.ruby.l1_cntrl13.L1Icache.demand_misses          139                       # Number of cache demand misses
system.ruby.l1_cntrl13.L1Icache.demand_accesses      7949186                       # Number of cache demand accesses
system.ruby.l1_cntrl10.L1Dcache.demand_hits       704215                       # Number of cache demand hits
system.ruby.l1_cntrl10.L1Dcache.demand_misses        61780                       # Number of cache demand misses
system.ruby.l1_cntrl10.L1Dcache.demand_accesses       765995                       # Number of cache demand accesses
system.ruby.l1_cntrl10.L1Icache.demand_hits      7965477                       # Number of cache demand hits
system.ruby.l1_cntrl10.L1Icache.demand_misses          162                       # Number of cache demand misses
system.ruby.l1_cntrl10.L1Icache.demand_accesses      7965639                       # Number of cache demand accesses
system.ruby.l1_cntrl11.L1Dcache.demand_hits       690990                       # Number of cache demand hits
system.ruby.l1_cntrl11.L1Dcache.demand_misses        59778                       # Number of cache demand misses
system.ruby.l1_cntrl11.L1Dcache.demand_accesses       750768                       # Number of cache demand accesses
system.ruby.l1_cntrl11.L1Icache.demand_hits      7940277                       # Number of cache demand hits
system.ruby.l1_cntrl11.L1Icache.demand_misses          150                       # Number of cache demand misses
system.ruby.l1_cntrl11.L1Icache.demand_accesses      7940427                       # Number of cache demand accesses
system.ruby.l2_cntrl9.L2cache.demand_hits        37624                       # Number of cache demand hits
system.ruby.l2_cntrl9.L2cache.demand_misses        23778                       # Number of cache demand misses
system.ruby.l2_cntrl9.L2cache.demand_accesses        61402                       # Number of cache demand accesses
system.ruby.l2_cntrl8.L2cache.demand_hits        37138                       # Number of cache demand hits
system.ruby.l2_cntrl8.L2cache.demand_misses        23537                       # Number of cache demand misses
system.ruby.l2_cntrl8.L2cache.demand_accesses        60675                       # Number of cache demand accesses
system.ruby.dir_cntrl0.memBuffer.memReq         32064                       # Total number of memory requests
system.ruby.dir_cntrl0.memBuffer.memRead        20870                       # Number of memory reads
system.ruby.dir_cntrl0.memBuffer.memWrite        11194                       # Number of memory writes
system.ruby.dir_cntrl0.memBuffer.memRefresh       120759                       # Number of memory refreshes
system.ruby.dir_cntrl0.memBuffer.memWaitCycles         7131                       # Delay stalled at the head of the bank queue
system.ruby.dir_cntrl0.memBuffer.memInputQ           59                       # Delay in the input queue
system.ruby.dir_cntrl0.memBuffer.memBankQ          430                       # Delay behind the head of the bank queue
system.ruby.dir_cntrl0.memBuffer.totalStalls         7620                       # Total number of stall cycles
system.ruby.dir_cntrl0.memBuffer.stallsPerReq     0.237650                       # Expected number of stall cycles per request
system.ruby.dir_cntrl0.memBuffer.memBankBusy         5060                       # memory stalls due to busy bank
system.ruby.dir_cntrl0.memBuffer.memBusBusy         1267                       # memory stalls due to busy bus
system.ruby.dir_cntrl0.memBuffer.memReadWriteBusy          277                       # memory stalls due to read write turnaround
system.ruby.dir_cntrl0.memBuffer.memDataBusBusy          149                       # memory stalls due to read read turnaround
system.ruby.dir_cntrl0.memBuffer.memArbWait          378                       # memory stalls due to arbitration
system.ruby.dir_cntrl0.memBuffer.memBankCount |        4092     12.76%     12.76% |           0      0.00%     12.76% |           0      0.00%     12.76% |           0      0.00%     12.76% |        3846     11.99%     24.76% |           0      0.00%     24.76% |           0      0.00%     24.76% |           0      0.00%     24.76% |        4036     12.59%     37.34% |           0      0.00%     37.34% |           0      0.00%     37.34% |           0      0.00%     37.34% |        3956     12.34%     49.68% |           0      0.00%     49.68% |           0      0.00%     49.68% |           0      0.00%     49.68% |        4148     12.94%     62.62% |           0      0.00%     62.62% |           0      0.00%     62.62% |           0      0.00%     62.62% |        3974     12.39%     75.01% |           0      0.00%     75.01% |           0      0.00%     75.01% |           0      0.00%     75.01% |        4060     12.66%     87.67% |           0      0.00%     87.67% |           0      0.00%     87.67% |           0      0.00%     87.67% |        3952     12.33%    100.00% |           0      0.00%    100.00% |           0      0.00%    100.00% |           0      0.00%    100.00% # Number of accesses per bank
system.ruby.dir_cntrl0.memBuffer.memBankCount::total        32064                       # Number of accesses per bank

system.ruby.dir_cntrl1.memBuffer.memReq         32229                       # Total number of memory requests
system.ruby.dir_cntrl1.memBuffer.memRead        20978                       # Number of memory reads
system.ruby.dir_cntrl1.memBuffer.memWrite        11251                       # Number of memory writes
system.ruby.dir_cntrl1.memBuffer.memRefresh       120748                       # Number of memory refreshes
system.ruby.dir_cntrl1.memBuffer.memWaitCycles         7145                       # Delay stalled at the head of the bank queue
system.ruby.dir_cntrl1.memBuffer.memInputQ           43                       # Delay in the input queue
system.ruby.dir_cntrl1.memBuffer.memBankQ          225                       # Delay behind the head of the bank queue
system.ruby.dir_cntrl1.memBuffer.totalStalls         7413                       # Total number of stall cycles
system.ruby.dir_cntrl1.memBuffer.stallsPerReq     0.230010                       # Expected number of stall cycles per request
system.ruby.dir_cntrl1.memBuffer.memBankBusy         5171                       # memory stalls due to busy bank
system.ruby.dir_cntrl1.memBuffer.memBusBusy         1208                       # memory stalls due to busy bus
system.ruby.dir_cntrl1.memBuffer.memReadWriteBusy          279                       # memory stalls due to read write turnaround
system.ruby.dir_cntrl1.memBuffer.memDataBusBusy          137                       # memory stalls due to read read turnaround
system.ruby.dir_cntrl1.memBuffer.memArbWait          350                       # memory stalls due to arbitration
system.ruby.dir_cntrl1.memBuffer.memBankCount |        4146     12.86%     12.86% |           0      0.00%     12.86% |           0      0.00%     12.86% |           0      0.00%     12.86% |        3880     12.04%     24.90% |           0      0.00%     24.90% |           0      0.00%     24.90% |           0      0.00%     24.90% |        4049     12.56%     37.47% |           0      0.00%     37.47% |           0      0.00%     37.47% |           0      0.00%     37.47% |        4030     12.50%     49.97% |           0      0.00%     49.97% |           0      0.00%     49.97% |           0      0.00%     49.97% |        4152     12.88%     62.85% |           0      0.00%     62.85% |           0      0.00%     62.85% |           0      0.00%     62.85% |        3940     12.23%     75.08% |           0      0.00%     75.08% |           0      0.00%     75.08% |           0      0.00%     75.08% |        4075     12.64%     87.72% |           0      0.00%     87.72% |           0      0.00%     87.72% |           0      0.00%     87.72% |        3957     12.28%    100.00% |           0      0.00%    100.00% |           0      0.00%    100.00% |           0      0.00%    100.00% # Number of accesses per bank
system.ruby.dir_cntrl1.memBuffer.memBankCount::total        32229                       # Number of accesses per bank

system.ruby.dir_cntrl2.memBuffer.memReq         32060                       # Total number of memory requests
system.ruby.dir_cntrl2.memBuffer.memRead        20868                       # Number of memory reads
system.ruby.dir_cntrl2.memBuffer.memWrite        11192                       # Number of memory writes
system.ruby.dir_cntrl2.memBuffer.memRefresh       120119                       # Number of memory refreshes
system.ruby.dir_cntrl2.memBuffer.memWaitCycles         6956                       # Delay stalled at the head of the bank queue
system.ruby.dir_cntrl2.memBuffer.memInputQ           55                       # Delay in the input queue
system.ruby.dir_cntrl2.memBuffer.memBankQ          519                       # Delay behind the head of the bank queue
system.ruby.dir_cntrl2.memBuffer.totalStalls         7530                       # Total number of stall cycles
system.ruby.dir_cntrl2.memBuffer.stallsPerReq     0.234872                       # Expected number of stall cycles per request
system.ruby.dir_cntrl2.memBuffer.memBankBusy         4917                       # memory stalls due to busy bank
system.ruby.dir_cntrl2.memBuffer.memBusBusy         1246                       # memory stalls due to busy bus
system.ruby.dir_cntrl2.memBuffer.memReadWriteBusy          275                       # memory stalls due to read write turnaround
system.ruby.dir_cntrl2.memBuffer.memDataBusBusy          121                       # memory stalls due to read read turnaround
system.ruby.dir_cntrl2.memBuffer.memArbWait          397                       # memory stalls due to arbitration
system.ruby.dir_cntrl2.memBuffer.memBankCount |        4091     12.76%     12.76% |           0      0.00%     12.76% |           0      0.00%     12.76% |           0      0.00%     12.76% |        3874     12.08%     24.84% |           0      0.00%     24.84% |           0      0.00%     24.84% |           0      0.00%     24.84% |        4089     12.75%     37.60% |           0      0.00%     37.60% |           0      0.00%     37.60% |           0      0.00%     37.60% |        3938     12.28%     49.88% |           0      0.00%     49.88% |           0      0.00%     49.88% |           0      0.00%     49.88% |        4126     12.87%     62.75% |           0      0.00%     62.75% |           0      0.00%     62.75% |           0      0.00%     62.75% |        3957     12.34%     75.09% |           0      0.00%     75.09% |           0      0.00%     75.09% |           0      0.00%     75.09% |        4050     12.63%     87.73% |           0      0.00%     87.73% |           0      0.00%     87.73% |           0      0.00%     87.73% |        3935     12.27%    100.00% |           0      0.00%    100.00% |           0      0.00%    100.00% |           0      0.00%    100.00% # Number of accesses per bank
system.ruby.dir_cntrl2.memBuffer.memBankCount::total        32060                       # Number of accesses per bank

system.ruby.dir_cntrl3.memBuffer.memReq         31964                       # Total number of memory requests
system.ruby.dir_cntrl3.memBuffer.memRead        20839                       # Number of memory reads
system.ruby.dir_cntrl3.memBuffer.memWrite        11125                       # Number of memory writes
system.ruby.dir_cntrl3.memBuffer.memRefresh       119997                       # Number of memory refreshes
system.ruby.dir_cntrl3.memBuffer.memWaitCycles         7145                       # Delay stalled at the head of the bank queue
system.ruby.dir_cntrl3.memBuffer.memInputQ           67                       # Delay in the input queue
system.ruby.dir_cntrl3.memBuffer.memBankQ          169                       # Delay behind the head of the bank queue
system.ruby.dir_cntrl3.memBuffer.totalStalls         7381                       # Total number of stall cycles
system.ruby.dir_cntrl3.memBuffer.stallsPerReq     0.230916                       # Expected number of stall cycles per request
system.ruby.dir_cntrl3.memBuffer.memBankBusy         4953                       # memory stalls due to busy bank
system.ruby.dir_cntrl3.memBuffer.memBusBusy         1357                       # memory stalls due to busy bus
system.ruby.dir_cntrl3.memBuffer.memReadWriteBusy          293                       # memory stalls due to read write turnaround
system.ruby.dir_cntrl3.memBuffer.memDataBusBusy          164                       # memory stalls due to read read turnaround
system.ruby.dir_cntrl3.memBuffer.memArbWait          378                       # memory stalls due to arbitration
system.ruby.dir_cntrl3.memBuffer.memBankCount |        4075     12.75%     12.75% |           0      0.00%     12.75% |           0      0.00%     12.75% |           0      0.00%     12.75% |        3889     12.17%     24.92% |           0      0.00%     24.92% |           0      0.00%     24.92% |           0      0.00%     24.92% |        4067     12.72%     37.64% |           0      0.00%     37.64% |           0      0.00%     37.64% |           0      0.00%     37.64% |        3966     12.41%     50.05% |           0      0.00%     50.05% |           0      0.00%     50.05% |           0      0.00%     50.05% |        4079     12.76%     62.81% |           0      0.00%     62.81% |           0      0.00%     62.81% |           0      0.00%     62.81% |        3913     12.24%     75.05% |           0      0.00%     75.05% |           0      0.00%     75.05% |           0      0.00%     75.05% |        4073     12.74%     87.79% |           0      0.00%     87.79% |           0      0.00%     87.79% |           0      0.00%     87.79% |        3902     12.21%    100.00% |           0      0.00%    100.00% |           0      0.00%    100.00% |           0      0.00%    100.00% # Number of accesses per bank
system.ruby.dir_cntrl3.memBuffer.memBankCount::total        31964                       # Number of accesses per bank

system.ruby.dir_cntrl4.memBuffer.memReq         31977                       # Total number of memory requests
system.ruby.dir_cntrl4.memBuffer.memRead        20868                       # Number of memory reads
system.ruby.dir_cntrl4.memBuffer.memWrite        11109                       # Number of memory writes
system.ruby.dir_cntrl4.memBuffer.memRefresh       120267                       # Number of memory refreshes
system.ruby.dir_cntrl4.memBuffer.memWaitCycles         6860                       # Delay stalled at the head of the bank queue
system.ruby.dir_cntrl4.memBuffer.memInputQ           63                       # Delay in the input queue
system.ruby.dir_cntrl4.memBuffer.memBankQ          175                       # Delay behind the head of the bank queue
system.ruby.dir_cntrl4.memBuffer.totalStalls         7098                       # Total number of stall cycles
system.ruby.dir_cntrl4.memBuffer.stallsPerReq     0.221972                       # Expected number of stall cycles per request
system.ruby.dir_cntrl4.memBuffer.memBankBusy         4859                       # memory stalls due to busy bank
system.ruby.dir_cntrl4.memBuffer.memBusBusy         1233                       # memory stalls due to busy bus
system.ruby.dir_cntrl4.memBuffer.memReadWriteBusy          292                       # memory stalls due to read write turnaround
system.ruby.dir_cntrl4.memBuffer.memDataBusBusy          135                       # memory stalls due to read read turnaround
system.ruby.dir_cntrl4.memBuffer.memArbWait          341                       # memory stalls due to arbitration
system.ruby.dir_cntrl4.memBuffer.memBankCount |           0      0.00%      0.00% |        4048     12.66%     12.66% |           0      0.00%     12.66% |           0      0.00%     12.66% |           0      0.00%     12.66% |        3849     12.04%     24.70% |           0      0.00%     24.70% |           0      0.00%     24.70% |           0      0.00%     24.70% |        4064     12.71%     37.41% |           0      0.00%     37.41% |           0      0.00%     37.41% |           0      0.00%     37.41% |        3977     12.44%     49.84% |           0      0.00%     49.84% |           0      0.00%     49.84% |           0      0.00%     49.84% |        4067     12.72%     62.56% |           0      0.00%     62.56% |           0      0.00%     62.56% |           0      0.00%     62.56% |        3936     12.31%     74.87% |           0      0.00%     74.87% |           0      0.00%     74.87% |           0      0.00%     74.87% |        4115     12.87%     87.74% |           0      0.00%     87.74% |           0      0.00%     87.74% |           0      0.00%     87.74% |        3921     12.26%    100.00% |           0      0.00%    100.00% |           0      0.00%    100.00% # Number of accesses per bank
system.ruby.dir_cntrl4.memBuffer.memBankCount::total        31977                       # Number of accesses per bank

system.ruby.dir_cntrl5.memBuffer.memReq         32022                       # Total number of memory requests
system.ruby.dir_cntrl5.memBuffer.memRead        20880                       # Number of memory reads
system.ruby.dir_cntrl5.memBuffer.memWrite        11142                       # Number of memory writes
system.ruby.dir_cntrl5.memBuffer.memRefresh       119959                       # Number of memory refreshes
system.ruby.dir_cntrl5.memBuffer.memWaitCycles         7011                       # Delay stalled at the head of the bank queue
system.ruby.dir_cntrl5.memBuffer.memInputQ           61                       # Delay in the input queue
system.ruby.dir_cntrl5.memBuffer.memBankQ          213                       # Delay behind the head of the bank queue
system.ruby.dir_cntrl5.memBuffer.totalStalls         7285                       # Total number of stall cycles
system.ruby.dir_cntrl5.memBuffer.stallsPerReq     0.227500                       # Expected number of stall cycles per request
system.ruby.dir_cntrl5.memBuffer.memBankBusy         5162                       # memory stalls due to busy bank
system.ruby.dir_cntrl5.memBuffer.memBusBusy         1169                       # memory stalls due to busy bus
system.ruby.dir_cntrl5.memBuffer.memReadWriteBusy          240                       # memory stalls due to read write turnaround
system.ruby.dir_cntrl5.memBuffer.memDataBusBusy          140                       # memory stalls due to read read turnaround
system.ruby.dir_cntrl5.memBuffer.memArbWait          300                       # memory stalls due to arbitration
system.ruby.dir_cntrl5.memBuffer.memBankCount |           0      0.00%      0.00% |        3992     12.47%     12.47% |           0      0.00%     12.47% |           0      0.00%     12.47% |           0      0.00%     12.47% |        3851     12.03%     24.49% |           0      0.00%     24.49% |           0      0.00%     24.49% |           0      0.00%     24.49% |        4075     12.73%     37.22% |           0      0.00%     37.22% |           0      0.00%     37.22% |           0      0.00%     37.22% |        4021     12.56%     49.78% |           0      0.00%     49.78% |           0      0.00%     49.78% |           0      0.00%     49.78% |        4084     12.75%     62.53% |           0      0.00%     62.53% |           0      0.00%     62.53% |           0      0.00%     62.53% |        3991     12.46%     74.99% |           0      0.00%     74.99% |           0      0.00%     74.99% |           0      0.00%     74.99% |        4027     12.58%     87.57% |           0      0.00%     87.57% |           0      0.00%     87.57% |           0      0.00%     87.57% |        3981     12.43%    100.00% |           0      0.00%    100.00% |           0      0.00%    100.00% # Number of accesses per bank
system.ruby.dir_cntrl5.memBuffer.memBankCount::total        32022                       # Number of accesses per bank

system.ruby.dir_cntrl6.memBuffer.memReq         31883                       # Total number of memory requests
system.ruby.dir_cntrl6.memBuffer.memRead        20820                       # Number of memory reads
system.ruby.dir_cntrl6.memBuffer.memWrite        11063                       # Number of memory writes
system.ruby.dir_cntrl6.memBuffer.memRefresh       120004                       # Number of memory refreshes
system.ruby.dir_cntrl6.memBuffer.memWaitCycles         6975                       # Delay stalled at the head of the bank queue
system.ruby.dir_cntrl6.memBuffer.memInputQ           39                       # Delay in the input queue
system.ruby.dir_cntrl6.memBuffer.memBankQ          149                       # Delay behind the head of the bank queue
system.ruby.dir_cntrl6.memBuffer.totalStalls         7163                       # Total number of stall cycles
system.ruby.dir_cntrl6.memBuffer.stallsPerReq     0.224665                       # Expected number of stall cycles per request
system.ruby.dir_cntrl6.memBuffer.memBankBusy         5117                       # memory stalls due to busy bank
system.ruby.dir_cntrl6.memBuffer.memBusBusy         1155                       # memory stalls due to busy bus
system.ruby.dir_cntrl6.memBuffer.memReadWriteBusy          276                       # memory stalls due to read write turnaround
system.ruby.dir_cntrl6.memBuffer.memDataBusBusy          128                       # memory stalls due to read read turnaround
system.ruby.dir_cntrl6.memBuffer.memArbWait          299                       # memory stalls due to arbitration
system.ruby.dir_cntrl6.memBuffer.memBankCount |           0      0.00%      0.00% |        3926     12.31%     12.31% |           0      0.00%     12.31% |           0      0.00%     12.31% |           0      0.00%     12.31% |        3901     12.24%     24.55% |           0      0.00%     24.55% |           0      0.00%     24.55% |           0      0.00%     24.55% |        4043     12.68%     37.23% |           0      0.00%     37.23% |           0      0.00%     37.23% |           0      0.00%     37.23% |        3993     12.52%     49.75% |           0      0.00%     49.75% |           0      0.00%     49.75% |           0      0.00%     49.75% |        4083     12.81%     62.56% |           0      0.00%     62.56% |           0      0.00%     62.56% |           0      0.00%     62.56% |        3972     12.46%     75.02% |           0      0.00%     75.02% |           0      0.00%     75.02% |           0      0.00%     75.02% |        4029     12.64%     87.65% |           0      0.00%     87.65% |           0      0.00%     87.65% |           0      0.00%     87.65% |        3936     12.35%    100.00% |           0      0.00%    100.00% |           0      0.00%    100.00% # Number of accesses per bank
system.ruby.dir_cntrl6.memBuffer.memBankCount::total        31883                       # Number of accesses per bank

system.ruby.dir_cntrl7.memBuffer.memReq         31947                       # Total number of memory requests
system.ruby.dir_cntrl7.memBuffer.memRead        20822                       # Number of memory reads
system.ruby.dir_cntrl7.memBuffer.memWrite        11125                       # Number of memory writes
system.ruby.dir_cntrl7.memBuffer.memRefresh       120143                       # Number of memory refreshes
system.ruby.dir_cntrl7.memBuffer.memWaitCycles         6920                       # Delay stalled at the head of the bank queue
system.ruby.dir_cntrl7.memBuffer.memInputQ           52                       # Delay in the input queue
system.ruby.dir_cntrl7.memBuffer.memBankQ          204                       # Delay behind the head of the bank queue
system.ruby.dir_cntrl7.memBuffer.totalStalls         7176                       # Total number of stall cycles
system.ruby.dir_cntrl7.memBuffer.stallsPerReq     0.224622                       # Expected number of stall cycles per request
system.ruby.dir_cntrl7.memBuffer.memBankBusy         5100                       # memory stalls due to busy bank
system.ruby.dir_cntrl7.memBuffer.memBusBusy         1132                       # memory stalls due to busy bus
system.ruby.dir_cntrl7.memBuffer.memReadWriteBusy          250                       # memory stalls due to read write turnaround
system.ruby.dir_cntrl7.memBuffer.memDataBusBusy          146                       # memory stalls due to read read turnaround
system.ruby.dir_cntrl7.memBuffer.memArbWait          292                       # memory stalls due to arbitration
system.ruby.dir_cntrl7.memBuffer.memBankCount |           0      0.00%      0.00% |        3957     12.39%     12.39% |           0      0.00%     12.39% |           0      0.00%     12.39% |           0      0.00%     12.39% |        3873     12.12%     24.51% |           0      0.00%     24.51% |           0      0.00%     24.51% |           0      0.00%     24.51% |        4091     12.81%     37.31% |           0      0.00%     37.31% |           0      0.00%     37.31% |           0      0.00%     37.31% |        4003     12.53%     49.85% |           0      0.00%     49.85% |           0      0.00%     49.85% |           0      0.00%     49.85% |        4024     12.60%     62.44% |           0      0.00%     62.44% |           0      0.00%     62.44% |           0      0.00%     62.44% |        3998     12.51%     74.96% |           0      0.00%     74.96% |           0      0.00%     74.96% |           0      0.00%     74.96% |        4051     12.68%     87.64% |           0      0.00%     87.64% |           0      0.00%     87.64% |           0      0.00%     87.64% |        3950     12.36%    100.00% |           0      0.00%    100.00% |           0      0.00%    100.00% # Number of accesses per bank
system.ruby.dir_cntrl7.memBuffer.memBankCount::total        31947                       # Number of accesses per bank

system.ruby.dir_cntrl8.memBuffer.memReq         31939                       # Total number of memory requests
system.ruby.dir_cntrl8.memBuffer.memRead        20830                       # Number of memory reads
system.ruby.dir_cntrl8.memBuffer.memWrite        11109                       # Number of memory writes
system.ruby.dir_cntrl8.memBuffer.memRefresh       120043                       # Number of memory refreshes
system.ruby.dir_cntrl8.memBuffer.memWaitCycles         6672                       # Delay stalled at the head of the bank queue
system.ruby.dir_cntrl8.memBuffer.memInputQ           44                       # Delay in the input queue
system.ruby.dir_cntrl8.memBuffer.memBankQ          191                       # Delay behind the head of the bank queue
system.ruby.dir_cntrl8.memBuffer.totalStalls         6907                       # Total number of stall cycles
system.ruby.dir_cntrl8.memBuffer.stallsPerReq     0.216256                       # Expected number of stall cycles per request
system.ruby.dir_cntrl8.memBuffer.memBankBusy         4695                       # memory stalls due to busy bank
system.ruby.dir_cntrl8.memBuffer.memBusBusy         1220                       # memory stalls due to busy bus
system.ruby.dir_cntrl8.memBuffer.memReadWriteBusy          294                       # memory stalls due to read write turnaround
system.ruby.dir_cntrl8.memBuffer.memDataBusBusy          125                       # memory stalls due to read read turnaround
system.ruby.dir_cntrl8.memBuffer.memArbWait          338                       # memory stalls due to arbitration
system.ruby.dir_cntrl8.memBuffer.memBankCount |           0      0.00%      0.00% |           0      0.00%      0.00% |        3931     12.31%     12.31% |           0      0.00%     12.31% |           0      0.00%     12.31% |           0      0.00%     12.31% |        3945     12.35%     24.66% |           0      0.00%     24.66% |           0      0.00%     24.66% |           0      0.00%     24.66% |        4064     12.72%     37.38% |           0      0.00%     37.38% |           0      0.00%     37.38% |           0      0.00%     37.38% |        4008     12.55%     49.93% |           0      0.00%     49.93% |           0      0.00%     49.93% |           0      0.00%     49.93% |        4038     12.64%     62.58% |           0      0.00%     62.58% |           0      0.00%     62.58% |           0      0.00%     62.58% |        4006     12.54%     75.12% |           0      0.00%     75.12% |           0      0.00%     75.12% |           0      0.00%     75.12% |        3988     12.49%     87.60% |           0      0.00%     87.60% |           0      0.00%     87.60% |           0      0.00%     87.60% |        3959     12.40%    100.00% |           0      0.00%    100.00% # Number of accesses per bank
system.ruby.dir_cntrl8.memBuffer.memBankCount::total        31939                       # Number of accesses per bank

system.ruby.dir_cntrl9.memBuffer.memReq         32207                       # Total number of memory requests
system.ruby.dir_cntrl9.memBuffer.memRead        20982                       # Number of memory reads
system.ruby.dir_cntrl9.memBuffer.memWrite        11225                       # Number of memory writes
system.ruby.dir_cntrl9.memBuffer.memRefresh       119929                       # Number of memory refreshes
system.ruby.dir_cntrl9.memBuffer.memWaitCycles         6796                       # Delay stalled at the head of the bank queue
system.ruby.dir_cntrl9.memBuffer.memInputQ           46                       # Delay in the input queue
system.ruby.dir_cntrl9.memBuffer.memBankQ          163                       # Delay behind the head of the bank queue
system.ruby.dir_cntrl9.memBuffer.totalStalls         7005                       # Total number of stall cycles
system.ruby.dir_cntrl9.memBuffer.stallsPerReq     0.217499                       # Expected number of stall cycles per request
system.ruby.dir_cntrl9.memBuffer.memBankBusy         4865                       # memory stalls due to busy bank
system.ruby.dir_cntrl9.memBuffer.memBusBusy         1210                       # memory stalls due to busy bus
system.ruby.dir_cntrl9.memBuffer.memReadWriteBusy          281                       # memory stalls due to read write turnaround
system.ruby.dir_cntrl9.memBuffer.memDataBusBusy          127                       # memory stalls due to read read turnaround
system.ruby.dir_cntrl9.memBuffer.memArbWait          313                       # memory stalls due to arbitration
system.ruby.dir_cntrl9.memBuffer.memBankCount |           0      0.00%      0.00% |           0      0.00%      0.00% |        3978     12.35%     12.35% |           0      0.00%     12.35% |           0      0.00%     12.35% |           0      0.00%     12.35% |        3963     12.30%     24.66% |           0      0.00%     24.66% |           0      0.00%     24.66% |           0      0.00%     24.66% |        4051     12.58%     37.23% |           0      0.00%     37.23% |           0      0.00%     37.23% |           0      0.00%     37.23% |        4036     12.53%     49.77% |           0      0.00%     49.77% |           0      0.00%     49.77% |           0      0.00%     49.77% |        4009     12.45%     62.21% |           0      0.00%     62.21% |           0      0.00%     62.21% |           0      0.00%     62.21% |        4192     13.02%     75.23% |           0      0.00%     75.23% |           0      0.00%     75.23% |           0      0.00%     75.23% |        3998     12.41%     87.64% |           0      0.00%     87.64% |           0      0.00%     87.64% |           0      0.00%     87.64% |        3980     12.36%    100.00% |           0      0.00%    100.00% # Number of accesses per bank
system.ruby.dir_cntrl9.memBuffer.memBankCount::total        32207                       # Number of accesses per bank

system.ruby.dir_cntrl10.memBuffer.memReq        32309                       # Total number of memory requests
system.ruby.dir_cntrl10.memBuffer.memRead        21073                       # Number of memory reads
system.ruby.dir_cntrl10.memBuffer.memWrite        11236                       # Number of memory writes
system.ruby.dir_cntrl10.memBuffer.memRefresh       119675                       # Number of memory refreshes
system.ruby.dir_cntrl10.memBuffer.memWaitCycles         7496                       # Delay stalled at the head of the bank queue
system.ruby.dir_cntrl10.memBuffer.memInputQ           63                       # Delay in the input queue
system.ruby.dir_cntrl10.memBuffer.memBankQ          391                       # Delay behind the head of the bank queue
system.ruby.dir_cntrl10.memBuffer.totalStalls         7950                       # Total number of stall cycles
system.ruby.dir_cntrl10.memBuffer.stallsPerReq     0.246061                       # Expected number of stall cycles per request
system.ruby.dir_cntrl10.memBuffer.memBankBusy         5527                       # memory stalls due to busy bank
system.ruby.dir_cntrl10.memBuffer.memBusBusy         1209                       # memory stalls due to busy bus
system.ruby.dir_cntrl10.memBuffer.memReadWriteBusy          277                       # memory stalls due to read write turnaround
system.ruby.dir_cntrl10.memBuffer.memDataBusBusy          150                       # memory stalls due to read read turnaround
system.ruby.dir_cntrl10.memBuffer.memArbWait          333                       # memory stalls due to arbitration
system.ruby.dir_cntrl10.memBuffer.memBankCount |           0      0.00%      0.00% |           0      0.00%      0.00% |        3927     12.15%     12.15% |           0      0.00%     12.15% |           0      0.00%     12.15% |           0      0.00%     12.15% |        4053     12.54%     24.70% |           0      0.00%     24.70% |           0      0.00%     24.70% |           0      0.00%     24.70% |        4041     12.51%     37.21% |           0      0.00%     37.21% |           0      0.00%     37.21% |           0      0.00%     37.21% |        4072     12.60%     49.81% |           0      0.00%     49.81% |           0      0.00%     49.81% |           0      0.00%     49.81% |        4028     12.47%     62.28% |           0      0.00%     62.28% |           0      0.00%     62.28% |           0      0.00%     62.28% |        4154     12.86%     75.13% |           0      0.00%     75.13% |           0      0.00%     75.13% |           0      0.00%     75.13% |        4048     12.53%     87.66% |           0      0.00%     87.66% |           0      0.00%     87.66% |           0      0.00%     87.66% |        3986     12.34%    100.00% |           0      0.00%    100.00% # Number of accesses per bank
system.ruby.dir_cntrl10.memBuffer.memBankCount::total        32309                       # Number of accesses per bank

system.ruby.dir_cntrl11.memBuffer.memReq        32231                       # Total number of memory requests
system.ruby.dir_cntrl11.memBuffer.memRead        21040                       # Number of memory reads
system.ruby.dir_cntrl11.memBuffer.memWrite        11191                       # Number of memory writes
system.ruby.dir_cntrl11.memBuffer.memRefresh       120533                       # Number of memory refreshes
system.ruby.dir_cntrl11.memBuffer.memWaitCycles         7195                       # Delay stalled at the head of the bank queue
system.ruby.dir_cntrl11.memBuffer.memInputQ           48                       # Delay in the input queue
system.ruby.dir_cntrl11.memBuffer.memBankQ          170                       # Delay behind the head of the bank queue
system.ruby.dir_cntrl11.memBuffer.totalStalls         7413                       # Total number of stall cycles
system.ruby.dir_cntrl11.memBuffer.stallsPerReq     0.229996                       # Expected number of stall cycles per request
system.ruby.dir_cntrl11.memBuffer.memBankBusy         5246                       # memory stalls due to busy bank
system.ruby.dir_cntrl11.memBuffer.memBusBusy         1199                       # memory stalls due to busy bus
system.ruby.dir_cntrl11.memBuffer.memReadWriteBusy          279                       # memory stalls due to read write turnaround
system.ruby.dir_cntrl11.memBuffer.memDataBusBusy          145                       # memory stalls due to read read turnaround
system.ruby.dir_cntrl11.memBuffer.memArbWait          326                       # memory stalls due to arbitration
system.ruby.dir_cntrl11.memBuffer.memBankCount |           0      0.00%      0.00% |           0      0.00%      0.00% |        3880     12.04%     12.04% |           0      0.00%     12.04% |           0      0.00%     12.04% |           0      0.00%     12.04% |        4019     12.47%     24.51% |           0      0.00%     24.51% |           0      0.00%     24.51% |           0      0.00%     24.51% |        3957     12.28%     36.78% |           0      0.00%     36.78% |           0      0.00%     36.78% |           0      0.00%     36.78% |        4073     12.64%     49.42% |           0      0.00%     49.42% |           0      0.00%     49.42% |           0      0.00%     49.42% |        4067     12.62%     62.04% |           0      0.00%     62.04% |           0      0.00%     62.04% |           0      0.00%     62.04% |        4249     13.18%     75.22% |           0      0.00%     75.22% |           0      0.00%     75.22% |           0      0.00%     75.22% |        3992     12.39%     87.61% |           0      0.00%     87.61% |           0      0.00%     87.61% |           0      0.00%     87.61% |        3994     12.39%    100.00% |           0      0.00%    100.00% # Number of accesses per bank
system.ruby.dir_cntrl11.memBuffer.memBankCount::total        32231                       # Number of accesses per bank

system.ruby.dir_cntrl12.memBuffer.memReq        32359                       # Total number of memory requests
system.ruby.dir_cntrl12.memBuffer.memRead        21110                       # Number of memory reads
system.ruby.dir_cntrl12.memBuffer.memWrite        11249                       # Number of memory writes
system.ruby.dir_cntrl12.memBuffer.memRefresh       120087                       # Number of memory refreshes
system.ruby.dir_cntrl12.memBuffer.memWaitCycles         7760                       # Delay stalled at the head of the bank queue
system.ruby.dir_cntrl12.memBuffer.memInputQ           62                       # Delay in the input queue
system.ruby.dir_cntrl12.memBuffer.memBankQ          419                       # Delay behind the head of the bank queue
system.ruby.dir_cntrl12.memBuffer.totalStalls         8241                       # Total number of stall cycles
system.ruby.dir_cntrl12.memBuffer.stallsPerReq     0.254674                       # Expected number of stall cycles per request
system.ruby.dir_cntrl12.memBuffer.memBankBusy         5700                       # memory stalls due to busy bank
system.ruby.dir_cntrl12.memBuffer.memBusBusy         1259                       # memory stalls due to busy bus
system.ruby.dir_cntrl12.memBuffer.memReadWriteBusy          284                       # memory stalls due to read write turnaround
system.ruby.dir_cntrl12.memBuffer.memDataBusBusy          152                       # memory stalls due to read read turnaround
system.ruby.dir_cntrl12.memBuffer.memArbWait          365                       # memory stalls due to arbitration
system.ruby.dir_cntrl12.memBuffer.memBankCount |           0      0.00%      0.00% |           0      0.00%      0.00% |           0      0.00%      0.00% |        3916     12.10%     12.10% |           0      0.00%     12.10% |           0      0.00%     12.10% |           0      0.00%     12.10% |        3995     12.35%     24.45% |           0      0.00%     24.45% |           0      0.00%     24.45% |           0      0.00%     24.45% |        4072     12.58%     37.03% |           0      0.00%     37.03% |           0      0.00%     37.03% |           0      0.00%     37.03% |        4097     12.66%     49.69% |           0      0.00%     49.69% |           0      0.00%     49.69% |           0      0.00%     49.69% |        4065     12.56%     62.25% |           0      0.00%     62.25% |           0      0.00%     62.25% |           0      0.00%     62.25% |        4195     12.96%     75.22% |           0      0.00%     75.22% |           0      0.00%     75.22% |           0      0.00%     75.22% |        3964     12.25%     87.47% |           0      0.00%     87.47% |           0      0.00%     87.47% |           0      0.00%     87.47% |        4055     12.53%    100.00% # Number of accesses per bank
system.ruby.dir_cntrl12.memBuffer.memBankCount::total        32359                       # Number of accesses per bank

system.ruby.dir_cntrl13.memBuffer.memReq        32403                       # Total number of memory requests
system.ruby.dir_cntrl13.memBuffer.memRead        21088                       # Number of memory reads
system.ruby.dir_cntrl13.memBuffer.memWrite        11315                       # Number of memory writes
system.ruby.dir_cntrl13.memBuffer.memRefresh       120082                       # Number of memory refreshes
system.ruby.dir_cntrl13.memBuffer.memWaitCycles         7387                       # Delay stalled at the head of the bank queue
system.ruby.dir_cntrl13.memBuffer.memInputQ           52                       # Delay in the input queue
system.ruby.dir_cntrl13.memBuffer.memBankQ          287                       # Delay behind the head of the bank queue
system.ruby.dir_cntrl13.memBuffer.totalStalls         7726                       # Total number of stall cycles
system.ruby.dir_cntrl13.memBuffer.stallsPerReq     0.238435                       # Expected number of stall cycles per request
system.ruby.dir_cntrl13.memBuffer.memBankBusy         5351                       # memory stalls due to busy bank
system.ruby.dir_cntrl13.memBuffer.memBusBusy         1267                       # memory stalls due to busy bus
system.ruby.dir_cntrl13.memBuffer.memReadWriteBusy          255                       # memory stalls due to read write turnaround
system.ruby.dir_cntrl13.memBuffer.memDataBusBusy          134                       # memory stalls due to read read turnaround
system.ruby.dir_cntrl13.memBuffer.memArbWait          380                       # memory stalls due to arbitration
system.ruby.dir_cntrl13.memBuffer.memBankCount |           0      0.00%      0.00% |           0      0.00%      0.00% |           0      0.00%      0.00% |        3934     12.14%     12.14% |           0      0.00%     12.14% |           0      0.00%     12.14% |           0      0.00%     12.14% |        4050     12.50%     24.64% |           0      0.00%     24.64% |           0      0.00%     24.64% |           0      0.00%     24.64% |        4022     12.41%     37.05% |           0      0.00%     37.05% |           0      0.00%     37.05% |           0      0.00%     37.05% |        4037     12.46%     49.51% |           0      0.00%     49.51% |           0      0.00%     49.51% |           0      0.00%     49.51% |        4089     12.62%     62.13% |           0      0.00%     62.13% |           0      0.00%     62.13% |           0      0.00%     62.13% |        4214     13.00%     75.14% |           0      0.00%     75.14% |           0      0.00%     75.14% |           0      0.00%     75.14% |        4019     12.40%     87.54% |           0      0.00%     87.54% |           0      0.00%     87.54% |           0      0.00%     87.54% |        4038     12.46%    100.00% # Number of accesses per bank
system.ruby.dir_cntrl13.memBuffer.memBankCount::total        32403                       # Number of accesses per bank

system.ruby.dir_cntrl14.memBuffer.memReq        32256                       # Total number of memory requests
system.ruby.dir_cntrl14.memBuffer.memRead        20984                       # Number of memory reads
system.ruby.dir_cntrl14.memBuffer.memWrite        11272                       # Number of memory writes
system.ruby.dir_cntrl14.memBuffer.memRefresh       119789                       # Number of memory refreshes
system.ruby.dir_cntrl14.memBuffer.memWaitCycles         7629                       # Delay stalled at the head of the bank queue
system.ruby.dir_cntrl14.memBuffer.memInputQ           56                       # Delay in the input queue
system.ruby.dir_cntrl14.memBuffer.memBankQ          650                       # Delay behind the head of the bank queue
system.ruby.dir_cntrl14.memBuffer.totalStalls         8335                       # Total number of stall cycles
system.ruby.dir_cntrl14.memBuffer.stallsPerReq     0.258402                       # Expected number of stall cycles per request
system.ruby.dir_cntrl14.memBuffer.memBankBusy         5660                       # memory stalls due to busy bank
system.ruby.dir_cntrl14.memBuffer.memBusBusy         1222                       # memory stalls due to busy bus
system.ruby.dir_cntrl14.memBuffer.memReadWriteBusy          267                       # memory stalls due to read write turnaround
system.ruby.dir_cntrl14.memBuffer.memDataBusBusy          149                       # memory stalls due to read read turnaround
system.ruby.dir_cntrl14.memBuffer.memArbWait          331                       # memory stalls due to arbitration
system.ruby.dir_cntrl14.memBuffer.memBankCount |           0      0.00%      0.00% |           0      0.00%      0.00% |           0      0.00%      0.00% |        3870     12.00%     12.00% |           0      0.00%     12.00% |           0      0.00%     12.00% |           0      0.00%     12.00% |        4053     12.57%     24.56% |           0      0.00%     24.56% |           0      0.00%     24.56% |           0      0.00%     24.56% |        4033     12.50%     37.07% |           0      0.00%     37.07% |           0      0.00%     37.07% |           0      0.00%     37.07% |        4098     12.70%     49.77% |           0      0.00%     49.77% |           0      0.00%     49.77% |           0      0.00%     49.77% |        3991     12.37%     62.14% |           0      0.00%     62.14% |           0      0.00%     62.14% |           0      0.00%     62.14% |        4185     12.97%     75.12% |           0      0.00%     75.12% |           0      0.00%     75.12% |           0      0.00%     75.12% |        4010     12.43%     87.55% |           0      0.00%     87.55% |           0      0.00%     87.55% |           0      0.00%     87.55% |        4016     12.45%    100.00% # Number of accesses per bank
system.ruby.dir_cntrl14.memBuffer.memBankCount::total        32256                       # Number of accesses per bank

system.ruby.dir_cntrl15.memBuffer.memReq        32225                       # Total number of memory requests
system.ruby.dir_cntrl15.memBuffer.memRead        20985                       # Number of memory reads
system.ruby.dir_cntrl15.memBuffer.memWrite        11240                       # Number of memory writes
system.ruby.dir_cntrl15.memBuffer.memRefresh       120825                       # Number of memory refreshes
system.ruby.dir_cntrl15.memBuffer.memWaitCycles         7653                       # Delay stalled at the head of the bank queue
system.ruby.dir_cntrl15.memBuffer.memInputQ           53                       # Delay in the input queue
system.ruby.dir_cntrl15.memBuffer.memBankQ          207                       # Delay behind the head of the bank queue
system.ruby.dir_cntrl15.memBuffer.totalStalls         7913                       # Total number of stall cycles
system.ruby.dir_cntrl15.memBuffer.stallsPerReq     0.245555                       # Expected number of stall cycles per request
system.ruby.dir_cntrl15.memBuffer.memBankBusy         5623                       # memory stalls due to busy bank
system.ruby.dir_cntrl15.memBuffer.memBusBusy         1270                       # memory stalls due to busy bus
system.ruby.dir_cntrl15.memBuffer.memReadWriteBusy          276                       # memory stalls due to read write turnaround
system.ruby.dir_cntrl15.memBuffer.memDataBusBusy          137                       # memory stalls due to read read turnaround
system.ruby.dir_cntrl15.memBuffer.memArbWait          347                       # memory stalls due to arbitration
system.ruby.dir_cntrl15.memBuffer.memBankCount |           0      0.00%      0.00% |           0      0.00%      0.00% |           0      0.00%      0.00% |        3875     12.02%     12.02% |           0      0.00%     12.02% |           0      0.00%     12.02% |           0      0.00%     12.02% |        4079     12.66%     24.68% |           0      0.00%     24.68% |           0      0.00%     24.68% |           0      0.00%     24.68% |        3942     12.23%     36.92% |           0      0.00%     36.92% |           0      0.00%     36.92% |           0      0.00%     36.92% |        4193     13.01%     49.93% |           0      0.00%     49.93% |           0      0.00%     49.93% |           0      0.00%     49.93% |        4004     12.43%     62.35% |           0      0.00%     62.35% |           0      0.00%     62.35% |           0      0.00%     62.35% |        4095     12.71%     75.06% |           0      0.00%     75.06% |           0      0.00%     75.06% |           0      0.00%     75.06% |        3921     12.17%     87.23% |           0      0.00%     87.23% |           0      0.00%     87.23% |           0      0.00%     87.23% |        4116     12.77%    100.00% # Number of accesses per bank
system.ruby.dir_cntrl15.memBuffer.memBankCount::total        32225                       # Number of accesses per bank

system.cpu00.workload.num_syscalls                167                       # Number of system calls
system.cpu00.numCycles                       75153938                       # number of cpu cycles simulated
system.cpu00.numWorkItemsStarted                    0                       # number of work items this cpu started
system.cpu00.numWorkItemsCompleted                  0                       # number of work items this cpu completed
system.cpu00.committedInsts                   5699402                       # Number of instructions committed
system.cpu00.committedOps                     8785962                       # Number of ops (including micro ops) committed
system.cpu00.num_int_alu_accesses             3963454                       # Number of integer alu accesses
system.cpu00.num_fp_alu_accesses              5698482                       # Number of float alu accesses
system.cpu00.num_func_calls                      1484                       # number of times a function call or return occured
system.cpu00.num_conditional_control_insts       209165                       # number of instructions that are conditional controls
system.cpu00.num_int_insts                    3963454                       # number of integer instructions
system.cpu00.num_fp_insts                     5698482                       # number of float instructions
system.cpu00.num_int_register_reads           8335682                       # number of times the integer registers were read
system.cpu00.num_int_register_writes          4987696                       # number of times the integer registers were written
system.cpu00.num_fp_register_reads           12738534                       # number of times the floating registers were read
system.cpu00.num_fp_register_writes           5262168                       # number of times the floating registers were written
system.cpu00.num_mem_refs                      771448                       # number of memory refs
system.cpu00.num_load_insts                    491295                       # Number of load instructions
system.cpu00.num_store_insts                   280153                       # Number of store instructions
system.cpu00.num_idle_cycles             74247.999998                       # Number of idle cycles
system.cpu00.num_busy_cycles             75079690.000002                       # Number of busy cycles
system.cpu00.not_idle_fraction               0.999012                       # Percentage of non-idle cycles
system.cpu00.idle_fraction                   0.000988                       # Percentage of idle cycles
system.cpu01.numCycles                       74810112                       # number of cpu cycles simulated
system.cpu01.numWorkItemsStarted                    0                       # number of work items this cpu started
system.cpu01.numWorkItemsCompleted                  0                       # number of work items this cpu completed
system.cpu01.committedInsts                   5705232                       # Number of instructions committed
system.cpu01.committedOps                     8738038                       # Number of ops (including micro ops) committed
system.cpu01.num_int_alu_accesses             3921007                       # Number of integer alu accesses
system.cpu01.num_fp_alu_accesses              5681255                       # Number of float alu accesses
system.cpu01.num_func_calls                       110                       # number of times a function call or return occured
system.cpu01.num_conditional_control_insts       215967                       # number of instructions that are conditional controls
system.cpu01.num_int_insts                    3921007                       # number of integer instructions
system.cpu01.num_fp_insts                     5681255                       # number of float instructions
system.cpu01.num_int_register_reads           8329054                       # number of times the integer registers were read
system.cpu01.num_int_register_writes          4894701                       # number of times the integer registers were written
system.cpu01.num_fp_register_reads           12720293                       # number of times the floating registers were read
system.cpu01.num_fp_register_writes           5249114                       # number of times the floating registers were written
system.cpu01.num_mem_refs                      784079                       # number of memory refs
system.cpu01.num_load_insts                    498970                       # Number of load instructions
system.cpu01.num_store_insts                   285109                       # Number of store instructions
system.cpu01.num_idle_cycles             792643.028128                       # Number of idle cycles
system.cpu01.num_busy_cycles             74017468.971872                       # Number of busy cycles
system.cpu01.not_idle_fraction               0.989405                       # Percentage of non-idle cycles
system.cpu01.idle_fraction                   0.010595                       # Percentage of idle cycles
system.cpu02.numCycles                       74808584                       # number of cpu cycles simulated
system.cpu02.numWorkItemsStarted                    0                       # number of work items this cpu started
system.cpu02.numWorkItemsCompleted                  0                       # number of work items this cpu completed
system.cpu02.committedInsts                   5676701                       # Number of instructions committed
system.cpu02.committedOps                     8712846                       # Number of ops (including micro ops) committed
system.cpu02.num_int_alu_accesses             3891161                       # Number of integer alu accesses
system.cpu02.num_fp_alu_accesses              5698265                       # Number of float alu accesses
system.cpu02.num_func_calls                       104                       # number of times a function call or return occured
system.cpu02.num_conditional_control_insts       207615                       # number of instructions that are conditional controls
system.cpu02.num_int_insts                    3891161                       # number of integer instructions
system.cpu02.num_fp_insts                     5698265                       # number of float instructions
system.cpu02.num_int_register_reads           8207653                       # number of times the integer registers were read
system.cpu02.num_int_register_writes          4872367                       # number of times the integer registers were written
system.cpu02.num_fp_register_reads           12738095                       # number of times the floating registers were read
system.cpu02.num_fp_register_writes           5261981                       # number of times the floating registers were written
system.cpu02.num_mem_refs                      770237                       # number of memory refs
system.cpu02.num_load_insts                    490193                       # Number of load instructions
system.cpu02.num_store_insts                   280044                       # Number of store instructions
system.cpu02.num_idle_cycles             795479.668262                       # Number of idle cycles
system.cpu02.num_busy_cycles             74013104.331738                       # Number of busy cycles
system.cpu02.not_idle_fraction               0.989366                       # Percentage of non-idle cycles
system.cpu02.idle_fraction                   0.010634                       # Percentage of idle cycles
system.cpu03.numCycles                       74807792                       # number of cpu cycles simulated
system.cpu03.numWorkItemsStarted                    0                       # number of work items this cpu started
system.cpu03.numWorkItemsCompleted                  0                       # number of work items this cpu completed
system.cpu03.committedInsts                   5661831                       # Number of instructions committed
system.cpu03.committedOps                     8685425                       # Number of ops (including micro ops) committed
system.cpu03.num_int_alu_accesses             3867816                       # Number of integer alu accesses
system.cpu03.num_fp_alu_accesses              5681917                       # Number of float alu accesses
system.cpu03.num_func_calls                        86                       # number of times a function call or return occured
system.cpu03.num_conditional_control_insts       206150                       # number of instructions that are conditional controls
system.cpu03.num_int_insts                    3867816                       # number of integer instructions
system.cpu03.num_fp_insts                     5681917                       # number of float instructions
system.cpu03.num_int_register_reads           8144758                       # number of times the integer registers were read
system.cpu03.num_int_register_writes          4853857                       # number of times the integer registers were written
system.cpu03.num_fp_register_reads           12721791                       # number of times the floating registers were read
system.cpu03.num_fp_register_writes           5249726                       # number of times the floating registers were written
system.cpu03.num_mem_refs                      757090                       # number of memory refs
system.cpu03.num_load_insts                    481363                       # Number of load instructions
system.cpu03.num_store_insts                   275727                       # Number of store instructions
system.cpu03.num_idle_cycles             816722.912106                       # Number of idle cycles
system.cpu03.num_busy_cycles             73991069.087894                       # Number of busy cycles
system.cpu03.not_idle_fraction               0.989082                       # Percentage of non-idle cycles
system.cpu03.idle_fraction                   0.010918                       # Percentage of idle cycles
system.cpu04.numCycles                       74808764                       # number of cpu cycles simulated
system.cpu04.numWorkItemsStarted                    0                       # number of work items this cpu started
system.cpu04.numWorkItemsCompleted                  0                       # number of work items this cpu completed
system.cpu04.committedInsts                   5651264                       # Number of instructions committed
system.cpu04.committedOps                     8693284                       # Number of ops (including micro ops) committed
system.cpu04.num_int_alu_accesses             3867416                       # Number of integer alu accesses
system.cpu04.num_fp_alu_accesses              5714726                       # Number of float alu accesses
system.cpu04.num_func_calls                       114                       # number of times a function call or return occured
system.cpu04.num_conditional_control_insts       200006                       # number of instructions that are conditional controls
system.cpu04.num_int_insts                    3867416                       # number of integer instructions
system.cpu04.num_fp_insts                     5714726                       # number of float instructions
system.cpu04.num_int_register_reads           8101668                       # number of times the integer registers were read
system.cpu04.num_int_register_writes          4855381                       # number of times the integer registers were written
system.cpu04.num_fp_register_reads           12754651                       # number of times the floating registers were read
system.cpu04.num_fp_register_writes           5274340                       # number of times the floating registers were written
system.cpu04.num_mem_refs                      758975                       # number of memory refs
system.cpu04.num_load_insts                    483489                       # Number of load instructions
system.cpu04.num_store_insts                   275486                       # Number of store instructions
system.cpu04.num_idle_cycles             836269.383911                       # Number of idle cycles
system.cpu04.num_busy_cycles             73972494.616089                       # Number of busy cycles
system.cpu04.not_idle_fraction               0.988821                       # Percentage of non-idle cycles
system.cpu04.idle_fraction                   0.011179                       # Percentage of idle cycles
system.cpu05.numCycles                       74807720                       # number of cpu cycles simulated
system.cpu05.numWorkItemsStarted                    0                       # number of work items this cpu started
system.cpu05.numWorkItemsCompleted                  0                       # number of work items this cpu completed
system.cpu05.committedInsts                   5662179                       # Number of instructions committed
system.cpu05.committedOps                     8686477                       # Number of ops (including micro ops) committed
system.cpu05.num_int_alu_accesses             3868841                       # Number of integer alu accesses
system.cpu05.num_fp_alu_accesses              5681953                       # Number of float alu accesses
system.cpu05.num_func_calls                        72                       # number of times a function call or return occured
system.cpu05.num_conditional_control_insts       206432                       # number of instructions that are conditional controls
system.cpu05.num_int_insts                    3868841                       # number of integer instructions
system.cpu05.num_fp_insts                     5681953                       # number of float instructions
system.cpu05.num_int_register_reads           8148965                       # number of times the integer registers were read
system.cpu05.num_int_register_writes          4854774                       # number of times the integer registers were written
system.cpu05.num_fp_register_reads           12721871                       # number of times the floating registers were read
system.cpu05.num_fp_register_writes           5249759                       # number of times the floating registers were written
system.cpu05.num_mem_refs                      757449                       # number of memory refs
system.cpu05.num_load_insts                    481875                       # Number of load instructions
system.cpu05.num_store_insts                   275574                       # Number of store instructions
system.cpu05.num_idle_cycles             837977.752759                       # Number of idle cycles
system.cpu05.num_busy_cycles             73969742.247241                       # Number of busy cycles
system.cpu05.not_idle_fraction               0.988798                       # Percentage of non-idle cycles
system.cpu05.idle_fraction                   0.011202                       # Percentage of idle cycles
[...]
system.ruby.l2_cntrl0.OO.Exclusive_Unblock::total       197712                      

system.ruby.l2_cntrl0.OLSXS.L1_GETS      |           0      0.00%      0.00% |           0      0.00%      0.00% |           0      0.00%      0.00% |           0      0.00%      0.00% |           0      0.00%      0.00% |           0      0.00%      0.00% |           0      0.00%      0.00% |           0      0.00%      0.00% |           0      0.00%      0.00% |           0      0.00%      0.00% |           0      0.00%      0.00% |           0      0.00%      0.00% |           0      0.00%      0.00% |           0      0.00%      0.00% |           0      0.00%      0.00% |           1    100.00%    100.00%
system.ruby.l2_cntrl0.OLSXS.L1_GETS::total            1                      

system.ruby.l2_cntrl0.OLSXS.Unblock      |          14      5.38%      5.38% |          12      4.62%     10.00% |          16      6.15%     16.15% |          26     10.00%     26.15% |          16      6.15%     32.31% |          14      5.38%     37.69% |          14      5.38%     43.08% |          14      5.38%     48.46% |          14      5.38%     53.85% |          12      4.62%     58.46% |          14      5.38%     63.85% |          12      4.62%     68.46% |          14      5.38%     73.85% |          16      6.15%     80.00% |          16      6.15%     86.15% |          36     13.85%    100.00%
system.ruby.l2_cntrl0.OLSXS.Unblock::total          260                      

system.ruby.l2_cntrl0.MI.L1_GETX         |           0      0.00%      0.00% |           0      0.00%      0.00% |           0      0.00%      0.00% |           0      0.00%      0.00% |           0      0.00%      0.00% |           0      0.00%      0.00% |           2     50.00%     50.00% |           0      0.00%     50.00% |           0      0.00%     50.00% |           0      0.00%     50.00% |           0      0.00%     50.00% |           0      0.00%     50.00% |           1     25.00%     75.00% |           0      0.00%     75.00% |           1     25.00%    100.00% |           0      0.00%    100.00%
system.ruby.l2_cntrl0.MI.L1_GETX::total             4                      

system.ruby.l2_cntrl0.MI.Writeback_Ack   |       16412      6.23%      6.23% |       16510      6.27%     12.50% |       16387      6.22%     18.72% |       16353      6.21%     24.93% |       16387      6.22%     31.15% |       16410      6.23%     37.38% |       16353      6.21%     43.58% |       16342      6.20%     49.79% |       16352      6.21%     56.00% |       16499      6.26%     62.26% |       16606      6.30%     68.56% |       16561      6.29%     74.85% |       16625      6.31%     81.16% |       16611      6.31%     87.47% |       16506      6.27%     93.73% |       16511      6.27%    100.00%
system.ruby.l2_cntrl0.MI.Writeback_Ack::total       263425                      

system.ruby.l2_cntrl0.OLSI.Writeback_Ack |           0      0.00%      0.00% |           0      0.00%      0.00% |           0      0.00%      0.00% |           0      0.00%      0.00% |           0      0.00%      0.00% |           0      0.00%      0.00% |           0      0.00%      0.00% |           0      0.00%      0.00% |           0      0.00%      0.00% |           1     33.33%     33.33% |           0      0.00%     33.33% |           1     33.33%     66.67% |           1     33.33%    100.00% |           0      0.00%    100.00% |           0      0.00%    100.00% |           0      0.00%    100.00%
system.ruby.l2_cntrl0.OLSI.Writeback_Ack::total            3                      

system.ruby.dir_cntrl0.GETX              |       13688      6.26%      6.26% |       13665      6.25%     12.52% |       13633      6.24%     18.76% |       13602      6.22%     24.98% |       13603      6.22%     31.20% |       13575      6.21%     37.42% |       13556      6.20%     43.62% |       13603      6.22%     49.84% |       13589      6.22%     56.06% |       13730      6.28%     62.35% |       13723      6.28%     68.63% |       13676      6.26%     74.88% |       13730      6.28%     81.17% |       13758      6.30%     87.46% |       13722      6.28%     93.74% |       13676      6.26%    100.00%
system.ruby.dir_cntrl0.GETX::total             218529                      

system.ruby.dir_cntrl0.GETS              |        7182      6.16%      6.16% |        7313      6.28%     12.44% |        7235      6.21%     18.65% |        7237      6.21%     24.86% |        7265      6.24%     31.10% |        7305      6.27%     37.37% |        7264      6.23%     43.60% |        7219      6.20%     49.80% |        7241      6.22%     56.01% |        7252      6.22%     62.24% |        7350      6.31%     68.55% |        7364      6.32%     74.87% |        7380      6.33%     81.20% |        7330      6.29%     87.49% |        7262      6.23%     93.73% |        7309      6.27%    100.00%
system.ruby.dir_cntrl0.GETS::total             116508                      

system.ruby.dir_cntrl0.PUTX              |       16412      6.23%      6.23% |       16510      6.27%     12.50% |       16387      6.22%     18.72% |       16353      6.21%     24.93% |       16387      6.22%     31.15% |       16410      6.23%     37.38% |       16353      6.21%     43.58% |       16342      6.20%     49.79% |       16352      6.21%     56.00% |       16499      6.26%     62.26% |       16606      6.30%     68.56% |       16561      6.29%     74.85% |       16625      6.31%     81.16% |       16611      6.31%     87.47% |       16506      6.27%     93.73% |       16511      6.27%    100.00%
system.ruby.dir_cntrl0.PUTX::total             263425                      

system.ruby.dir_cntrl0.PUTO_SHARERS      |           0      0.00%      0.00% |           0      0.00%      0.00% |           0      0.00%      0.00% |           0      0.00%      0.00% |           0      0.00%      0.00% |           0      0.00%      0.00% |           0      0.00%      0.00% |           0      0.00%      0.00% |           0      0.00%      0.00% |           1     33.33%     33.33% |           0      0.00%     33.33% |           1     33.33%     66.67% |           1     33.33%    100.00% |           0      0.00%    100.00% |           0      0.00%    100.00% |           0      0.00%    100.00%
system.ruby.dir_cntrl0.PUTO_SHARERS::total            3                      

system.ruby.dir_cntrl0.Exclusive_Unblock |       20870      6.23%      6.23% |       20977      6.26%     12.49% |       20868      6.23%     18.72% |       20839      6.22%     24.94% |       20868      6.23%     31.17% |       20880      6.23%     37.40% |       20820      6.21%     43.61% |       20822      6.21%     49.83% |       20830      6.22%     56.05% |       20982      6.26%     62.31% |       21073      6.29%     68.60% |       21040      6.28%     74.88% |       21110      6.30%     81.18% |       21088      6.29%     87.47% |       20984      6.26%     93.74% |       20985      6.26%    100.00%
system.ruby.dir_cntrl0.Exclusive_Unblock::total       335036                      

system.ruby.dir_cntrl0.Clean_Writeback   |        5218      6.18%      6.18% |        5259      6.23%     12.41% |        5195      6.16%     18.57% |        5228      6.20%     24.77% |        5278      6.25%     31.02% |        5268      6.24%     37.26% |        5290      6.27%     43.53% |        5217      6.18%     49.71% |        5243      6.21%     55.93% |        5275      6.25%     62.18% |        5370      6.36%     68.54% |        5371      6.36%     74.90% |        5377      6.37%     81.28% |        5296      6.28%     87.55% |        5234      6.20%     93.75% |        5271      6.25%    100.00%
system.ruby.dir_cntrl0.Clean_Writeback::total        84390                      

system.ruby.dir_cntrl0.Dirty_Writeback   |       11194      6.25%      6.25% |       11251      6.28%     12.54% |       11192      6.25%     18.79% |       11125      6.21%     25.00% |       11109      6.20%     31.21% |       11142      6.22%     37.43% |       11063      6.18%     43.61% |       11125      6.21%     49.82% |       11109      6.20%     56.03% |       11225      6.27%     62.30% |       11236      6.28%     68.57% |       11191      6.25%     74.82% |       11249      6.28%     81.11% |       11315      6.32%     87.43% |       11272      6.30%     93.72% |       11240      6.28%    100.00%
system.ruby.dir_cntrl0.Dirty_Writeback::total       179038                      

system.ruby.dir_cntrl0.Memory_Data       |       20870      6.23%      6.23% |       20978      6.26%     12.49% |       20868      6.23%     18.72% |       20839      6.22%     24.94% |       20868      6.23%     31.17% |       20880      6.23%     37.40% |       20820      6.21%     43.61% |       20822      6.21%     49.83% |       20830      6.22%     56.05% |       20982      6.26%     62.31% |       21073      6.29%     68.60% |       21040      6.28%     74.88% |       21110      6.30%     81.18% |       21088      6.29%     87.47% |       20984      6.26%     93.74% |       20985      6.26%    100.00%
system.ruby.dir_cntrl0.Memory_Data::total       335037                      

system.ruby.dir_cntrl0.Memory_Ack        |       11194      6.25%      6.25% |       11251      6.28%     12.54% |       11192      6.25%     18.79% |       11125      6.21%     25.00% |       11109      6.20%     31.21% |       11142      6.22%     37.43% |       11063      6.18%     43.61% |       11125      6.21%     49.82% |       11109      6.20%     56.03% |       11225      6.27%     62.30% |       11236      6.28%     68.57% |       11191      6.25%     74.82% |       11249      6.28%     81.11% |       11315      6.32%     87.43% |       11272      6.30%     93.72% |       11240      6.28%    100.00%
system.ruby.dir_cntrl0.Memory_Ack::total       179038                      

system.ruby.dir_cntrl0.I.GETX            |       13688      6.26%      6.26% |       13665      6.25%     12.52% |       13633      6.24%     18.76% |       13602      6.22%     24.98% |       13603      6.22%     31.20% |       13575      6.21%     37.42% |       13556      6.20%     43.62% |       13603      6.22%     49.84% |       13589      6.22%     56.06% |       13730      6.28%     62.35% |       13723      6.28%     68.63% |       13676      6.26%     74.88% |       13730      6.28%     81.17% |       13758      6.30%     87.46% |       13722      6.28%     93.74% |       13676      6.26%    100.00%
system.ruby.dir_cntrl0.I.GETX::total           218529                      

system.ruby.dir_cntrl0.I.GETS            |        7182      6.16%      6.16% |        7313      6.28%     12.44% |        7235      6.21%     18.65% |        7237      6.21%     24.86% |        7265      6.24%     31.10% |        7305      6.27%     37.37% |        7264      6.23%     43.60% |        7219      6.20%     49.80% |        7241      6.22%     56.01% |        7252      6.22%     62.24% |        7350      6.31%     68.55% |        7364      6.32%     74.87% |        7380      6.33%     81.20% |        7330      6.29%     87.49% |        7262      6.23%     93.73% |        7309      6.27%    100.00%
system.ruby.dir_cntrl0.I.GETS::total           116508                      

system.ruby.dir_cntrl0.I.Memory_Ack      |       11194      6.25%      6.25% |       11251      6.28%     12.54% |       11192      6.25%     18.79% |       11124      6.21%     25.00% |       11108      6.20%     31.21% |       11142      6.22%     37.43% |       11062      6.18%     43.61% |       11125      6.21%     49.82% |       11108      6.20%     56.03% |       11225      6.27%     62.30% |       11236      6.28%     68.57% |       11191      6.25%     74.82% |       11248      6.28%     81.11% |       11315      6.32%     87.43% |       11271      6.30%     93.72% |       11240      6.28%    100.00%
system.ruby.dir_cntrl0.I.Memory_Ack::total       179032                      

system.ruby.dir_cntrl0.M.PUTX            |       16412      6.23%      6.23% |       16510      6.27%     12.50% |       16387      6.22%     18.72% |       16353      6.21%     24.93% |       16387      6.22%     31.15% |       16410      6.23%     37.38% |       16353      6.21%     43.58% |       16342      6.20%     49.79% |       16352      6.21%     56.00% |       16499      6.26%     62.26% |       16606      6.30%     68.56% |       16561      6.29%     74.85% |       16625      6.31%     81.16% |       16611      6.31%     87.47% |       16506      6.27%     93.73% |       16511      6.27%    100.00%
system.ruby.dir_cntrl0.M.PUTX::total           263425                      

system.ruby.dir_cntrl0.M.PUTO_SHARERS    |           0      0.00%      0.00% |           0      0.00%      0.00% |           0      0.00%      0.00% |           0      0.00%      0.00% |           0      0.00%      0.00% |           0      0.00%      0.00% |           0      0.00%      0.00% |           0      0.00%      0.00% |           0      0.00%      0.00% |           1     33.33%     33.33% |           0      0.00%     33.33% |           1     33.33%     66.67% |           1     33.33%    100.00% |           0      0.00%    100.00% |           0      0.00%    100.00% |           0      0.00%    100.00%
system.ruby.dir_cntrl0.M.PUTO_SHARERS::total            3                      

system.ruby.dir_cntrl0.IS.Exclusive_Unblock |        7182      6.16%      6.16% |        7312      6.28%     12.44% |        7235      6.21%     18.65% |        7237      6.21%     24.86% |        7265      6.24%     31.10% |        7305      6.27%     37.37% |        7264      6.23%     43.60% |        7219      6.20%     49.80% |        7241      6.22%     56.01% |        7252      6.22%     62.24% |        7350      6.31%     68.55% |        7364      6.32%     74.87% |        7380      6.33%     81.20% |        7330      6.29%     87.49% |        7262      6.23%     93.73% |        7309      6.27%    100.00%
system.ruby.dir_cntrl0.IS.Exclusive_Unblock::total       116507                      

system.ruby.dir_cntrl0.IS.Memory_Data    |        7182      6.16%      6.16% |        7313      6.28%     12.44% |        7235      6.21%     18.65% |        7237      6.21%     24.86% |        7265      6.24%     31.10% |        7305      6.27%     37.37% |        7264      6.23%     43.60% |        7219      6.20%     49.80% |        7241      6.22%     56.01% |        7252      6.22%     62.24% |        7350      6.31%     68.55% |        7364      6.32%     74.87% |        7380      6.33%     81.20% |        7330      6.29%     87.49% |        7262      6.23%     93.73% |        7309      6.27%    100.00%
system.ruby.dir_cntrl0.IS.Memory_Data::total       116508                      

system.ruby.dir_cntrl0.IS.Memory_Ack     |           0      0.00%      0.00% |           0      0.00%      0.00% |           0      0.00%      0.00% |           1    100.00%    100.00% |           0      0.00%    100.00% |           0      0.00%    100.00% |           0      0.00%    100.00% |           0      0.00%    100.00% |           0      0.00%    100.00% |           0      0.00%    100.00% |           0      0.00%    100.00% |           0      0.00%    100.00% |           0      0.00%    100.00% |           0      0.00%    100.00% |           0      0.00%    100.00% |           0      0.00%    100.00%
system.ruby.dir_cntrl0.IS.Memory_Ack::total            1                      

system.ruby.dir_cntrl0.MM.Exclusive_Unblock |       13688      6.26%      6.26% |       13665      6.25%     12.52% |       13633      6.24%     18.76% |       13602      6.22%     24.98% |       13603      6.22%     31.20% |       13575      6.21%     37.42% |       13556      6.20%     43.62% |       13603      6.22%     49.84% |       13589      6.22%     56.06% |       13730      6.28%     62.35% |       13723      6.28%     68.63% |       13676      6.26%     74.88% |       13730      6.28%     81.17% |       13758      6.30%     87.46% |       13722      6.28%     93.74% |       13676      6.26%    100.00%
system.ruby.dir_cntrl0.MM.Exclusive_Unblock::total       218529                      

system.ruby.dir_cntrl0.MM.Memory_Data    |       13688      6.26%      6.26% |       13665      6.25%     12.52% |       13633      6.24%     18.76% |       13602      6.22%     24.98% |       13603      6.22%     31.20% |       13575      6.21%     37.42% |       13556      6.20%     43.62% |       13603      6.22%     49.84% |       13589      6.22%     56.06% |       13730      6.28%     62.35% |       13723      6.28%     68.63% |       13676      6.26%     74.88% |       13730      6.28%     81.17% |       13758      6.30%     87.46% |       13722      6.28%     93.74% |       13676      6.26%    100.00%
system.ruby.dir_cntrl0.MM.Memory_Data::total       218529                      

system.ruby.dir_cntrl0.MM.Memory_Ack     |           0      0.00%      0.00% |           0      0.00%      0.00% |           0      0.00%      0.00% |           0      0.00%      0.00% |           1     20.00%     20.00% |           0      0.00%     20.00% |           1     20.00%     40.00% |           0      0.00%     40.00% |           1     20.00%     60.00% |           0      0.00%     60.00% |           0      0.00%     60.00% |           0      0.00%     60.00% |           1     20.00%     80.00% |           0      0.00%     80.00% |           1     20.00%    100.00% |           0      0.00%    100.00%
system.ruby.dir_cntrl0.MM.Memory_Ack::total            5                      

system.ruby.dir_cntrl0.MI.Clean_Writeback |        5218      6.18%      6.18% |        5259      6.23%     12.42% |        5195      6.16%     18.57% |        5228      6.20%     24.77% |        5278      6.25%     31.02% |        5268      6.24%     37.26% |        5290      6.27%     43.53% |        5217      6.18%     49.72% |        5243      6.21%     55.93% |        5274      6.25%     62.18% |        5370      6.36%     68.54% |        5370      6.36%     74.90% |        5376      6.37%     81.28% |        5296      6.28%     87.55% |        5234      6.20%     93.75% |        5271      6.25%    100.00%
system.ruby.dir_cntrl0.MI.Clean_Writeback::total        84387                      

system.ruby.dir_cntrl0.MI.Dirty_Writeback |       11194      6.25%      6.25% |       11251      6.28%     12.54% |       11192      6.25%     18.79% |       11125      6.21%     25.00% |       11109      6.20%     31.21% |       11142      6.22%     37.43% |       11063      6.18%     43.61% |       11125      6.21%     49.82% |       11109      6.20%     56.03% |       11225      6.27%     62.30% |       11236      6.28%     68.57% |       11191      6.25%     74.82% |       11249      6.28%     81.11% |       11315      6.32%     87.43% |       11272      6.30%     93.72% |       11240      6.28%    100.00%
system.ruby.dir_cntrl0.MI.Dirty_Writeback::total       179038                      

system.ruby.dir_cntrl0.MIS.Clean_Writeback |           0      0.00%      0.00% |           0      0.00%      0.00% |           0      0.00%      0.00% |           0      0.00%      0.00% |           0      0.00%      0.00% |           0      0.00%      0.00% |           0      0.00%      0.00% |           0      0.00%      0.00% |           0      0.00%      0.00% |           1     33.33%     33.33% |           0      0.00%     33.33% |           1     33.33%     66.67% |           1     33.33%    100.00% |           0      0.00%    100.00% |           0      0.00%    100.00% |           0      0.00%    100.00%
system.ruby.dir_cntrl0.MIS.Clean_Writeback::total            3                      


---------- End Simulation Statistics   ----------
