
---------- Begin Simulation Statistics ----------
sim_seconds                                  0.038728                       # Number of seconds simulated
sim_ticks                                 38728216000                       # Number of ticks simulated
final_tick                                38728216000                       # Number of ticks from beginning of simulation (restored from checkpoints and never reset)
sim_freq                                 1000000000000                       # Frequency of simulated ticks
host_inst_rate                                 120344                       # Simulator instruction rate (inst/s)
host_op_rate                                   184825                       # Simulator op (including micro ops) rate (op/s)
host_tick_rate                               50997011                       # Simulator tick rate (ticks/s)
host_mem_usage                                 417732                       # Number of bytes of host memory used
host_seconds                                   759.42                       # Real time elapsed on the host
sim_insts                                    91392110                       # Number of instructions simulated
sim_ops                                     140360374                       # Number of ops (including micro ops) simulated
system.ruby.l2_cntrl5.L2cache.demand_hits        37356                       # Number of cache demand hits
system.ruby.l2_cntrl5.L2cache.demand_misses        23865                       # Number of cache demand misses
system.ruby.l2_cntrl5.L2cache.demand_accesses        61221                       # Number of cache demand accesses
system.ruby.l2_cntrl4.L2cache.demand_hits        37181                       # Number of cache demand hits
system.ruby.l2_cntrl4.L2cache.demand_misses        23769                       # Number of cache demand misses
system.ruby.l2_cntrl4.L2cache.demand_accesses        60950                       # Number of cache demand accesses
system.ruby.l2_cntrl11.L2cache.demand_hits        38226                       # Number of cache demand hits
system.ruby.l2_cntrl11.L2cache.demand_misses        23763                       # Number of cache demand misses
system.ruby.l2_cntrl11.L2cache.demand_accesses        61989                       # Number of cache demand accesses
system.ruby.l2_cntrl10.L2cache.demand_hits        37934                       # Number of cache demand hits
system.ruby.l2_cntrl10.L2cache.demand_misses        23874                       # Number of cache demand misses
system.ruby.l2_cntrl10.L2cache.demand_accesses        61808                       # Number of cache demand accesses
system.ruby.l2_cntrl13.L2cache.demand_hits        37918                       # Number of cache demand hits
system.ruby.l2_cntrl13.L2cache.demand_misses        23839                       # Number of cache demand misses
system.ruby.l2_cntrl13.L2cache.demand_accesses        61757                       # Number of cache demand accesses
system.ruby.l2_cntrl12.L2cache.demand_hits        37931                       # Number of cache demand hits
system.ruby.l2_cntrl12.L2cache.demand_misses        23775                       # Number of cache demand misses
system.ruby.l2_cntrl12.L2cache.demand_accesses        61706                       # Number of cache demand accesses
system.ruby.l2_cntrl15.L2cache.demand_hits        37570                       # Number of cache demand hits
system.ruby.l2_cntrl15.L2cache.demand_misses        23933                       # Number of cache demand misses
system.ruby.l2_cntrl15.L2cache.demand_accesses        61503                       # Number of cache demand accesses
system.ruby.l2_cntrl14.L2cache.demand_hits        37818                       # Number of cache demand hits
system.ruby.l2_cntrl14.L2cache.demand_misses        23770                       # Number of cache demand misses
system.ruby.l2_cntrl14.L2cache.demand_accesses        61588                       # Number of cache demand accesses
system.ruby.l1_cntrl4.L1Dcache.demand_hits       731336                       # Number of cache demand hits
system.ruby.l1_cntrl4.L1Dcache.demand_misses        63210                       # Number of cache demand misses
system.ruby.l1_cntrl4.L1Dcache.demand_accesses       794546                       # Number of cache demand accesses
system.ruby.l1_cntrl4.L1Icache.demand_hits      8015820                       # Number of cache demand hits
system.ruby.l1_cntrl4.L1Icache.demand_misses          158                       # Number of cache demand misses
system.ruby.l1_cntrl4.L1Icache.demand_accesses      8015978                       # Number of cache demand accesses
system.ruby.l1_cntrl5.L1Dcache.demand_hits       750132                       # Number of cache demand hits
system.ruby.l1_cntrl5.L1Dcache.demand_misses        60478                       # Number of cache demand misses
system.ruby.l1_cntrl5.L1Dcache.demand_accesses       810610                       # Number of cache demand accesses
system.ruby.l1_cntrl5.L1Icache.demand_hits      8055713                       # Number of cache demand hits
system.ruby.l1_cntrl5.L1Icache.demand_misses          139                       # Number of cache demand misses
system.ruby.l1_cntrl5.L1Icache.demand_accesses      8055852                       # Number of cache demand accesses
system.ruby.l1_cntrl6.L1Dcache.demand_hits       747171                       # Number of cache demand hits
system.ruby.l1_cntrl6.L1Dcache.demand_misses        62348                       # Number of cache demand misses
system.ruby.l1_cntrl6.L1Dcache.demand_accesses       809519                       # Number of cache demand accesses
system.ruby.l1_cntrl6.L1Icache.demand_hits      8052475                       # Number of cache demand hits
system.ruby.l1_cntrl6.L1Icache.demand_misses          163                       # Number of cache demand misses
system.ruby.l1_cntrl6.L1Icache.demand_accesses      8052638                       # Number of cache demand accesses
system.ruby.l1_cntrl7.L1Dcache.demand_hits       748592                       # Number of cache demand hits
system.ruby.l1_cntrl7.L1Dcache.demand_misses        60371                       # Number of cache demand misses
system.ruby.l1_cntrl7.L1Dcache.demand_accesses       808963                       # Number of cache demand accesses
system.ruby.l1_cntrl7.L1Icache.demand_hits      8056614                       # Number of cache demand hits
system.ruby.l1_cntrl7.L1Icache.demand_misses          149                       # Number of cache demand misses
system.ruby.l1_cntrl7.L1Icache.demand_accesses      8056763                       # Number of cache demand accesses
system.ruby.l1_cntrl0.L1Dcache.demand_hits       716683                       # Number of cache demand hits
system.ruby.l1_cntrl0.L1Dcache.demand_misses        60330                       # Number of cache demand misses
system.ruby.l1_cntrl0.L1Dcache.demand_accesses       777013                       # Number of cache demand accesses
system.ruby.l1_cntrl0.L1Icache.demand_hits      8022435                       # Number of cache demand hits
system.ruby.l1_cntrl0.L1Icache.demand_misses          679                       # Number of cache demand misses
system.ruby.l1_cntrl0.L1Icache.demand_accesses      8023114                       # Number of cache demand accesses
system.ruby.l1_cntrl1.L1Dcache.demand_hits       719898                       # Number of cache demand hits
system.ruby.l1_cntrl1.L1Dcache.demand_misses        59892                       # Number of cache demand misses
system.ruby.l1_cntrl1.L1Dcache.demand_accesses       779790                       # Number of cache demand accesses
system.ruby.l1_cntrl1.L1Icache.demand_hits      7989082                       # Number of cache demand hits
system.ruby.l1_cntrl1.L1Icache.demand_misses          151                       # Number of cache demand misses
system.ruby.l1_cntrl1.L1Icache.demand_accesses      7989233                       # Number of cache demand accesses
system.ruby.l1_cntrl2.L1Dcache.demand_hits       719362                       # Number of cache demand hits
system.ruby.l1_cntrl2.L1Dcache.demand_misses        62002                       # Number of cache demand misses
system.ruby.l1_cntrl2.L1Dcache.demand_accesses       781364                       # Number of cache demand accesses
system.ruby.l1_cntrl2.L1Icache.demand_hits      7991836                       # Number of cache demand hits
system.ruby.l1_cntrl2.L1Icache.demand_misses          159                       # Number of cache demand misses
system.ruby.l1_cntrl2.L1Icache.demand_accesses      7991995                       # Number of cache demand accesses
system.ruby.l1_cntrl3.L1Dcache.demand_hits       731227                       # Number of cache demand hits
system.ruby.l1_cntrl3.L1Dcache.demand_misses        59544                       # Number of cache demand misses
system.ruby.l1_cntrl3.L1Dcache.demand_accesses       790771                       # Number of cache demand accesses
system.ruby.l1_cntrl3.L1Icache.demand_hits      8016682                       # Number of cache demand hits
system.ruby.l1_cntrl3.L1Icache.demand_misses          153                       # Number of cache demand misses
system.ruby.l1_cntrl3.L1Icache.demand_accesses      8016835                       # Number of cache demand accesses
system.ruby.l2_cntrl1.L2cache.demand_hits        37012                       # Number of cache demand hits
system.ruby.l2_cntrl1.L2cache.demand_misses        26542                       # Number of cache demand misses
system.ruby.l2_cntrl1.L2cache.demand_accesses        63554                       # Number of cache demand accesses
system.ruby.l2_cntrl0.L2cache.demand_hits        37900                       # Number of cache demand hits
system.ruby.l2_cntrl0.L2cache.demand_misses        23964                       # Number of cache demand misses
system.ruby.l2_cntrl0.L2cache.demand_accesses        61864                       # Number of cache demand accesses
system.ruby.l2_cntrl3.L2cache.demand_hits        37361                       # Number of cache demand hits
system.ruby.l2_cntrl3.L2cache.demand_misses        23756                       # Number of cache demand misses
system.ruby.l2_cntrl3.L2cache.demand_accesses        61117                       # Number of cache demand accesses
system.ruby.l2_cntrl2.L2cache.demand_hits        37041                       # Number of cache demand hits
system.ruby.l2_cntrl2.L2cache.demand_misses        24168                       # Number of cache demand misses
system.ruby.l2_cntrl2.L2cache.demand_accesses        61209                       # Number of cache demand accesses
system.ruby.l1_cntrl8.L1Dcache.demand_hits       729862                       # Number of cache demand hits
system.ruby.l1_cntrl8.L1Dcache.demand_misses        65243                       # Number of cache demand misses
system.ruby.l1_cntrl8.L1Dcache.demand_accesses       795105                       # Number of cache demand accesses
system.ruby.l1_cntrl8.L1Icache.demand_hits      8015240                       # Number of cache demand hits
system.ruby.l1_cntrl8.L1Icache.demand_misses          148                       # Number of cache demand misses
system.ruby.l1_cntrl8.L1Icache.demand_accesses      8015388                       # Number of cache demand accesses
system.ruby.l1_cntrl9.L1Dcache.demand_hits       750125                       # Number of cache demand hits
system.ruby.l1_cntrl9.L1Dcache.demand_misses        60571                       # Number of cache demand misses
system.ruby.l1_cntrl9.L1Dcache.demand_accesses       810696                       # Number of cache demand accesses
system.ruby.l1_cntrl9.L1Icache.demand_hits      8055990                       # Number of cache demand hits
system.ruby.l1_cntrl9.L1Icache.demand_misses          148                       # Number of cache demand misses
system.ruby.l1_cntrl9.L1Icache.demand_accesses      8056138                       # Number of cache demand accesses
system.ruby.l2_cntrl7.L2cache.demand_hits        37664                       # Number of cache demand hits
system.ruby.l2_cntrl7.L2cache.demand_misses        23745                       # Number of cache demand misses
system.ruby.l2_cntrl7.L2cache.demand_accesses        61409                       # Number of cache demand accesses
system.ruby.l2_cntrl6.L2cache.demand_hits        37580                       # Number of cache demand hits
system.ruby.l2_cntrl6.L2cache.demand_misses        23834                       # Number of cache demand misses
system.ruby.l2_cntrl6.L2cache.demand_accesses        61414                       # Number of cache demand accesses
system.ruby.l1_cntrl14.L1Dcache.demand_hits       706819                       # Number of cache demand hits
system.ruby.l1_cntrl14.L1Dcache.demand_misses        60234                       # Number of cache demand misses
system.ruby.l1_cntrl14.L1Dcache.demand_accesses       767053                       # Number of cache demand accesses
system.ruby.l1_cntrl14.L1Icache.demand_hits      7977053                       # Number of cache demand hits
system.ruby.l1_cntrl14.L1Icache.demand_misses          148                       # Number of cache demand misses
system.ruby.l1_cntrl14.L1Icache.demand_accesses      7977201                       # Number of cache demand accesses
system.ruby.l1_cntrl15.L1Dcache.demand_hits       670701                       # Number of cache demand hits
system.ruby.l1_cntrl15.L1Dcache.demand_misses        62568                       # Number of cache demand misses
system.ruby.l1_cntrl15.L1Dcache.demand_accesses       733269                       # Number of cache demand accesses
system.ruby.l1_cntrl15.L1Icache.demand_hits      7922967                       # Number of cache demand hits
system.ruby.l1_cntrl15.L1Icache.demand_misses          155                       # Number of cache demand misses
system.ruby.l1_cntrl15.L1Icache.demand_accesses      7923122                       # Number of cache demand accesses
system.ruby.l1_cntrl12.L1Dcache.demand_hits       717342                       # Number of cache demand hits
system.ruby.l1_cntrl12.L1Dcache.demand_misses        63509                       # Number of cache demand misses
system.ruby.l1_cntrl12.L1Dcache.demand_accesses       780851                       # Number of cache demand accesses
system.ruby.l1_cntrl12.L1Icache.demand_hits      7992709                       # Number of cache demand hits
system.ruby.l1_cntrl12.L1Icache.demand_misses          148                       # Number of cache demand misses
system.ruby.l1_cntrl12.L1Icache.demand_accesses      7992857                       # Number of cache demand accesses
system.ruby.l1_cntrl13.L1Dcache.demand_hits       715790                       # Number of cache demand hits
system.ruby.l1_cntrl13.L1Dcache.demand_misses        61537                       # Number of cache demand misses
system.ruby.l1_cntrl13.L1Dcache.demand_accesses       777327                       # Number of cache demand accesses
system.ruby.l1_cntrl13.L1Icache.demand_hits      7991649                       # Number of cache demand hits
system.ruby.l1_cntrl13.L1Icache.demand_misses          157                       # Number of cache demand misses
system.ruby.l1_cntrl13.L1Icache.demand_accesses      7991806                       # Number of cache demand accesses
system.ruby.l1_cntrl10.L1Dcache.demand_hits       742325                       # Number of cache demand hits
system.ruby.l1_cntrl10.L1Dcache.demand_misses        62030                       # Number of cache demand misses
system.ruby.l1_cntrl10.L1Dcache.demand_accesses       804355                       # Number of cache demand accesses
system.ruby.l1_cntrl10.L1Icache.demand_hits      8042196                       # Number of cache demand hits
system.ruby.l1_cntrl10.L1Icache.demand_misses          162                       # Number of cache demand misses
system.ruby.l1_cntrl10.L1Icache.demand_accesses      8042358                       # Number of cache demand accesses
system.ruby.l1_cntrl11.L1Dcache.demand_hits       742622                       # Number of cache demand hits
system.ruby.l1_cntrl11.L1Dcache.demand_misses        60167                       # Number of cache demand misses
system.ruby.l1_cntrl11.L1Dcache.demand_accesses       802789                       # Number of cache demand accesses
system.ruby.l1_cntrl11.L1Icache.demand_hits      8044319                       # Number of cache demand hits
system.ruby.l1_cntrl11.L1Icache.demand_misses          149                       # Number of cache demand misses
system.ruby.l1_cntrl11.L1Icache.demand_accesses      8044468                       # Number of cache demand accesses
system.ruby.l2_cntrl9.L2cache.demand_hits        38171                       # Number of cache demand hits
system.ruby.l2_cntrl9.L2cache.demand_misses        23996                       # Number of cache demand misses
system.ruby.l2_cntrl9.L2cache.demand_accesses        62167                       # Number of cache demand accesses
system.ruby.l2_cntrl8.L2cache.demand_hits        37892                       # Number of cache demand hits
system.ruby.l2_cntrl8.L2cache.demand_misses        23852                       # Number of cache demand misses
system.ruby.l2_cntrl8.L2cache.demand_accesses        61744                       # Number of cache demand accesses
system.ruby.dir_cntrl0.memBuffer.memReq         32498                       # Total number of memory requests
system.ruby.dir_cntrl0.memBuffer.memRead        21227                       # Number of memory reads
system.ruby.dir_cntrl0.memBuffer.memWrite        11271                       # Number of memory writes
system.ruby.dir_cntrl0.memBuffer.memRefresh       123611                       # Number of memory refreshes
system.ruby.dir_cntrl0.memBuffer.memWaitCycles         9518                       # Delay stalled at the head of the bank queue
system.ruby.dir_cntrl0.memBuffer.memInputQ           73                       # Delay in the input queue
system.ruby.dir_cntrl0.memBuffer.memBankQ          552                       # Delay behind the head of the bank queue
system.ruby.dir_cntrl0.memBuffer.totalStalls        10143                       # Total number of stall cycles
system.ruby.dir_cntrl0.memBuffer.stallsPerReq     0.312112                       # Expected number of stall cycles per request
system.ruby.dir_cntrl0.memBuffer.memBankBusy         7370                       # memory stalls due to busy bank
system.ruby.dir_cntrl0.memBuffer.memBusBusy         1281                       # memory stalls due to busy bus
system.ruby.dir_cntrl0.memBuffer.memReadWriteBusy          317                       # memory stalls due to read write turnaround
system.ruby.dir_cntrl0.memBuffer.memDataBusBusy          156                       # memory stalls due to read read turnaround
system.ruby.dir_cntrl0.memBuffer.memArbWait          394                       # memory stalls due to arbitration
system.ruby.dir_cntrl0.memBuffer.memBankCount |        4114     12.66%     12.66% |           0      0.00%     12.66% |           0      0.00%     12.66% |           0      0.00%     12.66% |        4114     12.66%     25.32% |           0      0.00%     25.32% |           0      0.00%     25.32% |           0      0.00%     25.32% |        3949     12.15%     37.47% |           0      0.00%     37.47% |           0      0.00%     37.47% |           0      0.00%     37.47% |        3994     12.29%     49.76% |           0      0.00%     49.76% |           0      0.00%     49.76% |           0      0.00%     49.76% |        4042     12.44%     62.20% |           0      0.00%     62.20% |           0      0.00%     62.20% |           0      0.00%     62.20% |        4171     12.83%     75.03% |           0      0.00%     75.03% |           0      0.00%     75.03% |           0      0.00%     75.03% |        4030     12.40%     87.43% |           0      0.00%     87.43% |           0      0.00%     87.43% |           0      0.00%     87.43% |        4084     12.57%    100.00% |           0      0.00%    100.00% |           0      0.00%    100.00% |           0      0.00%    100.00% # Number of accesses per bank
system.ruby.dir_cntrl0.memBuffer.memBankCount::total        32498                       # Number of accesses per bank

system.ruby.dir_cntrl1.memBuffer.memReq         32547                       # Total number of memory requests
system.ruby.dir_cntrl1.memBuffer.memRead        21265                       # Number of memory reads
system.ruby.dir_cntrl1.memBuffer.memWrite        11282                       # Number of memory writes
system.ruby.dir_cntrl1.memBuffer.memRefresh       123822                       # Number of memory refreshes
system.ruby.dir_cntrl1.memBuffer.memWaitCycles        10065                       # Delay stalled at the head of the bank queue
system.ruby.dir_cntrl1.memBuffer.memInputQ           64                       # Delay in the input queue
system.ruby.dir_cntrl1.memBuffer.memBankQ          102                       # Delay behind the head of the bank queue
system.ruby.dir_cntrl1.memBuffer.totalStalls        10231                       # Total number of stall cycles
system.ruby.dir_cntrl1.memBuffer.stallsPerReq     0.314345                       # Expected number of stall cycles per request
system.ruby.dir_cntrl1.memBuffer.memBankBusy         7781                       # memory stalls due to busy bank
system.ruby.dir_cntrl1.memBuffer.memBusBusy         1351                       # memory stalls due to busy bus
system.ruby.dir_cntrl1.memBuffer.memReadWriteBusy          353                       # memory stalls due to read write turnaround
system.ruby.dir_cntrl1.memBuffer.memDataBusBusy          157                       # memory stalls due to read read turnaround
system.ruby.dir_cntrl1.memBuffer.memArbWait          423                       # memory stalls due to arbitration
system.ruby.dir_cntrl1.memBuffer.memBankCount |        4083     12.54%     12.54% |           0      0.00%     12.54% |           0      0.00%     12.54% |           0      0.00%     12.54% |        4078     12.53%     25.07% |           0      0.00%     25.07% |           0      0.00%     25.07% |           0      0.00%     25.07% |        3977     12.22%     37.29% |           0      0.00%     37.29% |           0      0.00%     37.29% |           0      0.00%     37.29% |        4020     12.35%     49.65% |           0      0.00%     49.65% |           0      0.00%     49.65% |           0      0.00%     49.65% |        4042     12.42%     62.06% |           0      0.00%     62.06% |           0      0.00%     62.06% |           0      0.00%     62.06% |        4151     12.75%     74.82% |           0      0.00%     74.82% |           0      0.00%     74.82% |           0      0.00%     74.82% |        4091     12.57%     87.39% |           0      0.00%     87.39% |           0      0.00%     87.39% |           0      0.00%     87.39% |        4105     12.61%    100.00% |           0      0.00%    100.00% |           0      0.00%    100.00% |           0      0.00%    100.00% # Number of accesses per bank
system.ruby.dir_cntrl1.memBuffer.memBankCount::total        32547                       # Number of accesses per bank

system.ruby.dir_cntrl2.memBuffer.memReq         32558                       # Total number of memory requests
system.ruby.dir_cntrl2.memBuffer.memRead        21279                       # Number of memory reads
system.ruby.dir_cntrl2.memBuffer.memWrite        11279                       # Number of memory writes
system.ruby.dir_cntrl2.memBuffer.memRefresh       123430                       # Number of memory refreshes
system.ruby.dir_cntrl2.memBuffer.memWaitCycles        11040                       # Delay stalled at the head of the bank queue
system.ruby.dir_cntrl2.memBuffer.memInputQ           64                       # Delay in the input queue
system.ruby.dir_cntrl2.memBuffer.memBankQ          167                       # Delay behind the head of the bank queue
system.ruby.dir_cntrl2.memBuffer.totalStalls        11271                       # Total number of stall cycles
system.ruby.dir_cntrl2.memBuffer.stallsPerReq     0.346182                       # Expected number of stall cycles per request
system.ruby.dir_cntrl2.memBuffer.memBankBusy         8805                       # memory stalls due to busy bank
system.ruby.dir_cntrl2.memBuffer.memBusBusy         1351                       # memory stalls due to busy bus
system.ruby.dir_cntrl2.memBuffer.memReadWriteBusy          320                       # memory stalls due to read write turnaround
system.ruby.dir_cntrl2.memBuffer.memDataBusBusy          164                       # memory stalls due to read read turnaround
system.ruby.dir_cntrl2.memBuffer.memArbWait          400                       # memory stalls due to arbitration
system.ruby.dir_cntrl2.memBuffer.memBankCount |        4035     12.39%     12.39% |           0      0.00%     12.39% |           0      0.00%     12.39% |           0      0.00%     12.39% |        4146     12.73%     25.13% |           0      0.00%     25.13% |           0      0.00%     25.13% |           0      0.00%     25.13% |        3979     12.22%     37.35% |           0      0.00%     37.35% |           0      0.00%     37.35% |           0      0.00%     37.35% |        3994     12.27%     49.62% |           0      0.00%     49.62% |           0      0.00%     49.62% |           0      0.00%     49.62% |        4007     12.31%     61.92% |           0      0.00%     61.92% |           0      0.00%     61.92% |           0      0.00%     61.92% |        4144     12.73%     74.65% |           0      0.00%     74.65% |           0      0.00%     74.65% |           0      0.00%     74.65% |        4108     12.62%     87.27% |           0      0.00%     87.27% |           0      0.00%     87.27% |           0      0.00%     87.27% |        4145     12.73%    100.00% |           0      0.00%    100.00% |           0      0.00%    100.00% |           0      0.00%    100.00% # Number of accesses per bank
system.ruby.dir_cntrl2.memBuffer.memBankCount::total        32558                       # Number of accesses per bank

system.ruby.dir_cntrl3.memBuffer.memReq         32374                       # Total number of memory requests
system.ruby.dir_cntrl3.memBuffer.memRead        21200                       # Number of memory reads
system.ruby.dir_cntrl3.memBuffer.memWrite        11174                       # Number of memory writes
system.ruby.dir_cntrl3.memBuffer.memRefresh       123447                       # Number of memory refreshes
system.ruby.dir_cntrl3.memBuffer.memWaitCycles        11841                       # Delay stalled at the head of the bank queue
system.ruby.dir_cntrl3.memBuffer.memInputQ           74                       # Delay in the input queue
system.ruby.dir_cntrl3.memBuffer.memBankQ          231                       # Delay behind the head of the bank queue
system.ruby.dir_cntrl3.memBuffer.totalStalls        12146                       # Total number of stall cycles
system.ruby.dir_cntrl3.memBuffer.stallsPerReq     0.375178                       # Expected number of stall cycles per request
system.ruby.dir_cntrl3.memBuffer.memBankBusy         9496                       # memory stalls due to busy bank
system.ruby.dir_cntrl3.memBuffer.memBusBusy         1435                       # memory stalls due to busy bus
system.ruby.dir_cntrl3.memBuffer.memReadWriteBusy          311                       # memory stalls due to read write turnaround
system.ruby.dir_cntrl3.memBuffer.memDataBusBusy          159                       # memory stalls due to read read turnaround
system.ruby.dir_cntrl3.memBuffer.memArbWait          440                       # memory stalls due to arbitration
system.ruby.dir_cntrl3.memBuffer.memBankCount |        4026     12.44%     12.44% |           0      0.00%     12.44% |           0      0.00%     12.44% |           0      0.00%     12.44% |        4084     12.62%     25.05% |           0      0.00%     25.05% |           0      0.00%     25.05% |           0      0.00%     25.05% |        3960     12.23%     37.28% |           0      0.00%     37.28% |           0      0.00%     37.28% |           0      0.00%     37.28% |        3990     12.32%     49.61% |           0      0.00%     49.61% |           0      0.00%     49.61% |           0      0.00%     49.61% |        4007     12.38%     61.98% |           0      0.00%     61.98% |           0      0.00%     61.98% |           0      0.00%     61.98% |        4114     12.71%     74.69% |           0      0.00%     74.69% |           0      0.00%     74.69% |           0      0.00%     74.69% |        4090     12.63%     87.33% |           0      0.00%     87.33% |           0      0.00%     87.33% |           0      0.00%     87.33% |        4103     12.67%    100.00% |           0      0.00%    100.00% |           0      0.00%    100.00% |           0      0.00%    100.00% # Number of accesses per bank
system.ruby.dir_cntrl3.memBuffer.memBankCount::total        32374                       # Number of accesses per bank

system.ruby.dir_cntrl4.memBuffer.memReq         32400                       # Total number of memory requests
system.ruby.dir_cntrl4.memBuffer.memRead        21227                       # Number of memory reads
system.ruby.dir_cntrl4.memBuffer.memWrite        11173                       # Number of memory writes
system.ruby.dir_cntrl4.memBuffer.memRefresh       123824                       # Number of memory refreshes
system.ruby.dir_cntrl4.memBuffer.memWaitCycles        11587                       # Delay stalled at the head of the bank queue
system.ruby.dir_cntrl4.memBuffer.memInputQ           75                       # Delay in the input queue
system.ruby.dir_cntrl4.memBuffer.memBankQ          171                       # Delay behind the head of the bank queue
system.ruby.dir_cntrl4.memBuffer.totalStalls        11833                       # Total number of stall cycles
system.ruby.dir_cntrl4.memBuffer.stallsPerReq     0.365216                       # Expected number of stall cycles per request
system.ruby.dir_cntrl4.memBuffer.memBankBusy         9449                       # memory stalls due to busy bank
system.ruby.dir_cntrl4.memBuffer.memBusBusy         1287                       # memory stalls due to busy bus
system.ruby.dir_cntrl4.memBuffer.memReadWriteBusy          340                       # memory stalls due to read write turnaround
system.ruby.dir_cntrl4.memBuffer.memDataBusBusy          171                       # memory stalls due to read read turnaround
system.ruby.dir_cntrl4.memBuffer.memArbWait          340                       # memory stalls due to arbitration
system.ruby.dir_cntrl4.memBuffer.memBankCount |           0      0.00%      0.00% |        4064     12.54%     12.54% |           0      0.00%     12.54% |           0      0.00%     12.54% |           0      0.00%     12.54% |        4085     12.61%     25.15% |           0      0.00%     25.15% |           0      0.00%     25.15% |           0      0.00%     25.15% |        3965     12.24%     37.39% |           0      0.00%     37.39% |           0      0.00%     37.39% |           0      0.00%     37.39% |        3990     12.31%     49.70% |           0      0.00%     49.70% |           0      0.00%     49.70% |           0      0.00%     49.70% |        4021     12.41%     62.11% |           0      0.00%     62.11% |           0      0.00%     62.11% |           0      0.00%     62.11% |        4148     12.80%     74.92% |           0      0.00%     74.92% |           0      0.00%     74.92% |           0      0.00%     74.92% |        4038     12.46%     87.38% |           0      0.00%     87.38% |           0      0.00%     87.38% |           0      0.00%     87.38% |        4089     12.62%    100.00% |           0      0.00%    100.00% |           0      0.00%    100.00% # Number of accesses per bank
system.ruby.dir_cntrl4.memBuffer.memBankCount::total        32400                       # Number of accesses per bank

system.ruby.dir_cntrl5.memBuffer.memReq         32497                       # Total number of memory requests
system.ruby.dir_cntrl5.memBuffer.memRead        21257                       # Number of memory reads
system.ruby.dir_cntrl5.memBuffer.memWrite        11240                       # Number of memory writes
system.ruby.dir_cntrl5.memBuffer.memRefresh       123352                       # Number of memory refreshes
system.ruby.dir_cntrl5.memBuffer.memWaitCycles        12094                       # Delay stalled at the head of the bank queue
system.ruby.dir_cntrl5.memBuffer.memInputQ           82                       # Delay in the input queue
system.ruby.dir_cntrl5.memBuffer.memBankQ          233                       # Delay behind the head of the bank queue
system.ruby.dir_cntrl5.memBuffer.totalStalls        12409                       # Total number of stall cycles
system.ruby.dir_cntrl5.memBuffer.stallsPerReq     0.381851                       # Expected number of stall cycles per request
system.ruby.dir_cntrl5.memBuffer.memBankBusy         9970                       # memory stalls due to busy bank
system.ruby.dir_cntrl5.memBuffer.memBusBusy         1297                       # memory stalls due to busy bus
system.ruby.dir_cntrl5.memBuffer.memReadWriteBusy          322                       # memory stalls due to read write turnaround
system.ruby.dir_cntrl5.memBuffer.memDataBusBusy          197                       # memory stalls due to read read turnaround
system.ruby.dir_cntrl5.memBuffer.memArbWait          308                       # memory stalls due to arbitration
system.ruby.dir_cntrl5.memBuffer.memBankCount |           0      0.00%      0.00% |        4091     12.59%     12.59% |           0      0.00%     12.59% |           0      0.00%     12.59% |           0      0.00%     12.59% |        4028     12.39%     24.98% |           0      0.00%     24.98% |           0      0.00%     24.98% |           0      0.00%     24.98% |        4009     12.34%     37.32% |           0      0.00%     37.32% |           0      0.00%     37.32% |           0      0.00%     37.32% |        4030     12.40%     49.72% |           0      0.00%     49.72% |           0      0.00%     49.72% |           0      0.00%     49.72% |        4036     12.42%     62.14% |           0      0.00%     62.14% |           0      0.00%     62.14% |           0      0.00%     62.14% |        4156     12.79%     74.93% |           0      0.00%     74.93% |           0      0.00%     74.93% |           0      0.00%     74.93% |        4048     12.46%     87.39% |           0      0.00%     87.39% |           0      0.00%     87.39% |           0      0.00%     87.39% |        4099     12.61%    100.00% |           0      0.00%    100.00% |           0      0.00%    100.00% # Number of accesses per bank
system.ruby.dir_cntrl5.memBuffer.memBankCount::total        32497                       # Number of accesses per bank

system.ruby.dir_cntrl6.memBuffer.memReq         32497                       # Total number of memory requests
system.ruby.dir_cntrl6.memBuffer.memRead        21223                       # Number of memory reads
system.ruby.dir_cntrl6.memBuffer.memWrite        11274                       # Number of memory writes
system.ruby.dir_cntrl6.memBuffer.memRefresh       123446                       # Number of memory refreshes
system.ruby.dir_cntrl6.memBuffer.memWaitCycles        13018                       # Delay stalled at the head of the bank queue
system.ruby.dir_cntrl6.memBuffer.memInputQ           67                       # Delay in the input queue
system.ruby.dir_cntrl6.memBuffer.memBankQ          252                       # Delay behind the head of the bank queue
system.ruby.dir_cntrl6.memBuffer.totalStalls        13337                       # Total number of stall cycles
system.ruby.dir_cntrl6.memBuffer.stallsPerReq     0.410407                       # Expected number of stall cycles per request
system.ruby.dir_cntrl6.memBuffer.memBankBusy        10842                       # memory stalls due to busy bank
system.ruby.dir_cntrl6.memBuffer.memBusBusy         1328                       # memory stalls due to busy bus
system.ruby.dir_cntrl6.memBuffer.memReadWriteBusy          335                       # memory stalls due to read write turnaround
system.ruby.dir_cntrl6.memBuffer.memDataBusBusy          170                       # memory stalls due to read read turnaround
system.ruby.dir_cntrl6.memBuffer.memArbWait          343                       # memory stalls due to arbitration
system.ruby.dir_cntrl6.memBuffer.memBankCount |           0      0.00%      0.00% |        4053     12.47%     12.47% |           0      0.00%     12.47% |           0      0.00%     12.47% |           0      0.00%     12.47% |        4067     12.52%     24.99% |           0      0.00%     24.99% |           0      0.00%     24.99% |           0      0.00%     24.99% |        3998     12.30%     37.29% |           0      0.00%     37.29% |           0      0.00%     37.29% |           0      0.00%     37.29% |        4033     12.41%     49.70% |           0      0.00%     49.70% |           0      0.00%     49.70% |           0      0.00%     49.70% |        4025     12.39%     62.09% |           0      0.00%     62.09% |           0      0.00%     62.09% |           0      0.00%     62.09% |        4148     12.76%     74.85% |           0      0.00%     74.85% |           0      0.00%     74.85% |           0      0.00%     74.85% |        4131     12.71%     87.56% |           0      0.00%     87.56% |           0      0.00%     87.56% |           0      0.00%     87.56% |        4042     12.44%    100.00% |           0      0.00%    100.00% |           0      0.00%    100.00% # Number of accesses per bank
system.ruby.dir_cntrl6.memBuffer.memBankCount::total        32497                       # Number of accesses per bank

system.ruby.dir_cntrl7.memBuffer.memReq         32323                       # Total number of memory requests
system.ruby.dir_cntrl7.memBuffer.memRead        21156                       # Number of memory reads
system.ruby.dir_cntrl7.memBuffer.memWrite        11167                       # Number of memory writes
system.ruby.dir_cntrl7.memBuffer.memRefresh       123607                       # Number of memory refreshes
system.ruby.dir_cntrl7.memBuffer.memWaitCycles        13824                       # Delay stalled at the head of the bank queue
system.ruby.dir_cntrl7.memBuffer.memInputQ           59                       # Delay in the input queue
system.ruby.dir_cntrl7.memBuffer.memBankQ          333                       # Delay behind the head of the bank queue
system.ruby.dir_cntrl7.memBuffer.totalStalls        14216                       # Total number of stall cycles
system.ruby.dir_cntrl7.memBuffer.stallsPerReq     0.439811                       # Expected number of stall cycles per request
system.ruby.dir_cntrl7.memBuffer.memBankBusy        11748                       # memory stalls due to busy bank
system.ruby.dir_cntrl7.memBuffer.memBusBusy         1268                       # memory stalls due to busy bus
system.ruby.dir_cntrl7.memBuffer.memReadWriteBusy          344                       # memory stalls due to read write turnaround
system.ruby.dir_cntrl7.memBuffer.memDataBusBusy          133                       # memory stalls due to read read turnaround
system.ruby.dir_cntrl7.memBuffer.memArbWait          331                       # memory stalls due to arbitration
system.ruby.dir_cntrl7.memBuffer.memBankCount |           0      0.00%      0.00% |        4067     12.58%     12.58% |           0      0.00%     12.58% |           0      0.00%     12.58% |           0      0.00%     12.58% |        4031     12.47%     25.05% |           0      0.00%     25.05% |           0      0.00%     25.05% |           0      0.00%     25.05% |        4048     12.52%     37.58% |           0      0.00%     37.58% |           0      0.00%     37.58% |           0      0.00%     37.58% |        4028     12.46%     50.04% |           0      0.00%     50.04% |           0      0.00%     50.04% |           0      0.00%     50.04% |        3991     12.35%     62.39% |           0      0.00%     62.39% |           0      0.00%     62.39% |           0      0.00%     62.39% |        4107     12.71%     75.09% |           0      0.00%     75.09% |           0      0.00%     75.09% |           0      0.00%     75.09% |        4071     12.59%     87.69% |           0      0.00%     87.69% |           0      0.00%     87.69% |           0      0.00%     87.69% |        3980     12.31%    100.00% |           0      0.00%    100.00% |           0      0.00%    100.00% # Number of accesses per bank
system.ruby.dir_cntrl7.memBuffer.memBankCount::total        32323                       # Number of accesses per bank

system.ruby.dir_cntrl8.memBuffer.memReq         32454                       # Total number of memory requests
system.ruby.dir_cntrl8.memBuffer.memRead        21229                       # Number of memory reads
system.ruby.dir_cntrl8.memBuffer.memWrite        11225                       # Number of memory writes
system.ruby.dir_cntrl8.memBuffer.memRefresh       123359                       # Number of memory refreshes
system.ruby.dir_cntrl8.memBuffer.memWaitCycles        13641                       # Delay stalled at the head of the bank queue
system.ruby.dir_cntrl8.memBuffer.memInputQ           79                       # Delay in the input queue
system.ruby.dir_cntrl8.memBuffer.memBankQ          284                       # Delay behind the head of the bank queue
system.ruby.dir_cntrl8.memBuffer.totalStalls        14004                       # Total number of stall cycles
system.ruby.dir_cntrl8.memBuffer.stallsPerReq     0.431503                       # Expected number of stall cycles per request
system.ruby.dir_cntrl8.memBuffer.memBankBusy        11384                       # memory stalls due to busy bank
system.ruby.dir_cntrl8.memBuffer.memBusBusy         1332                       # memory stalls due to busy bus
system.ruby.dir_cntrl8.memBuffer.memReadWriteBusy          375                       # memory stalls due to read write turnaround
system.ruby.dir_cntrl8.memBuffer.memDataBusBusy          160                       # memory stalls due to read read turnaround
system.ruby.dir_cntrl8.memBuffer.memArbWait          390                       # memory stalls due to arbitration
system.ruby.dir_cntrl8.memBuffer.memBankCount |           0      0.00%      0.00% |           0      0.00%      0.00% |        4038     12.44%     12.44% |           0      0.00%     12.44% |           0      0.00%     12.44% |           0      0.00%     12.44% |        4063     12.52%     24.96% |           0      0.00%     24.96% |           0      0.00%     24.96% |           0      0.00%     24.96% |        4077     12.56%     37.52% |           0      0.00%     37.52% |           0      0.00%     37.52% |           0      0.00%     37.52% |        4035     12.43%     49.96% |           0      0.00%     49.96% |           0      0.00%     49.96% |           0      0.00%     49.96% |        4023     12.40%     62.35% |           0      0.00%     62.35% |           0      0.00%     62.35% |           0      0.00%     62.35% |        4083     12.58%     74.93% |           0      0.00%     74.93% |           0      0.00%     74.93% |           0      0.00%     74.93% |        4105     12.65%     87.58% |           0      0.00%     87.58% |           0      0.00%     87.58% |           0      0.00%     87.58% |        4030     12.42%    100.00% |           0      0.00%    100.00% # Number of accesses per bank
system.ruby.dir_cntrl8.memBuffer.memBankCount::total        32454                       # Number of accesses per bank

system.ruby.dir_cntrl9.memBuffer.memReq         32781                       # Total number of memory requests
system.ruby.dir_cntrl9.memBuffer.memRead        21415                       # Number of memory reads
system.ruby.dir_cntrl9.memBuffer.memWrite        11366                       # Number of memory writes
system.ruby.dir_cntrl9.memBuffer.memRefresh       123436                       # Number of memory refreshes
system.ruby.dir_cntrl9.memBuffer.memWaitCycles        16748                       # Delay stalled at the head of the bank queue
system.ruby.dir_cntrl9.memBuffer.memInputQ           77                       # Delay in the input queue
system.ruby.dir_cntrl9.memBuffer.memBankQ          377                       # Delay behind the head of the bank queue
system.ruby.dir_cntrl9.memBuffer.totalStalls        17202                       # Total number of stall cycles
system.ruby.dir_cntrl9.memBuffer.stallsPerReq     0.524755                       # Expected number of stall cycles per request
system.ruby.dir_cntrl9.memBuffer.memBankBusy        14510                       # memory stalls due to busy bank
system.ruby.dir_cntrl9.memBuffer.memBusBusy         1348                       # memory stalls due to busy bus
system.ruby.dir_cntrl9.memBuffer.memReadWriteBusy          353                       # memory stalls due to read write turnaround
system.ruby.dir_cntrl9.memBuffer.memDataBusBusy          153                       # memory stalls due to read read turnaround
system.ruby.dir_cntrl9.memBuffer.memArbWait          384                       # memory stalls due to arbitration
system.ruby.dir_cntrl9.memBuffer.memBankCount |           0      0.00%      0.00% |           0      0.00%      0.00% |        4061     12.39%     12.39% |           0      0.00%     12.39% |           0      0.00%     12.39% |           0      0.00%     12.39% |        4058     12.38%     24.77% |           0      0.00%     24.77% |           0      0.00%     24.77% |           0      0.00%     24.77% |        4111     12.54%     37.31% |           0      0.00%     37.31% |           0      0.00%     37.31% |           0      0.00%     37.31% |        4024     12.28%     49.58% |           0      0.00%     49.58% |           0      0.00%     49.58% |           0      0.00%     49.58% |        4070     12.42%     62.00% |           0      0.00%     62.00% |           0      0.00%     62.00% |           0      0.00%     62.00% |        4329     13.21%     75.21% |           0      0.00%     75.21% |           0      0.00%     75.21% |           0      0.00%     75.21% |        4082     12.45%     87.66% |           0      0.00%     87.66% |           0      0.00%     87.66% |           0      0.00%     87.66% |        4046     12.34%    100.00% |           0      0.00%    100.00% # Number of accesses per bank
system.ruby.dir_cntrl9.memBuffer.memBankCount::total        32781                       # Number of accesses per bank

system.ruby.dir_cntrl10.memBuffer.memReq        32495                       # Total number of memory requests
system.ruby.dir_cntrl10.memBuffer.memRead        21263                       # Number of memory reads
system.ruby.dir_cntrl10.memBuffer.memWrite        11232                       # Number of memory writes
system.ruby.dir_cntrl10.memBuffer.memRefresh       123125                       # Number of memory refreshes
system.ruby.dir_cntrl10.memBuffer.memWaitCycles        17878                       # Delay stalled at the head of the bank queue
system.ruby.dir_cntrl10.memBuffer.memInputQ           68                       # Delay in the input queue
system.ruby.dir_cntrl10.memBuffer.memBankQ          491                       # Delay behind the head of the bank queue
system.ruby.dir_cntrl10.memBuffer.totalStalls        18437                       # Total number of stall cycles
system.ruby.dir_cntrl10.memBuffer.stallsPerReq     0.567380                       # Expected number of stall cycles per request
system.ruby.dir_cntrl10.memBuffer.memBankBusy        15641                       # memory stalls due to busy bank
system.ruby.dir_cntrl10.memBuffer.memBusBusy         1328                       # memory stalls due to busy bus
system.ruby.dir_cntrl10.memBuffer.memReadWriteBusy          349                       # memory stalls due to read write turnaround
system.ruby.dir_cntrl10.memBuffer.memDataBusBusy          187                       # memory stalls due to read read turnaround
system.ruby.dir_cntrl10.memBuffer.memArbWait          373                       # memory stalls due to arbitration
system.ruby.dir_cntrl10.memBuffer.memBankCount |           0      0.00%      0.00% |           0      0.00%      0.00% |        3973     12.23%     12.23% |           0      0.00%     12.23% |           0      0.00%     12.23% |           0      0.00%     12.23% |        4010     12.34%     24.57% |           0      0.00%     24.57% |           0      0.00%     24.57% |           0      0.00%     24.57% |        4033     12.41%     36.98% |           0      0.00%     36.98% |           0      0.00%     36.98% |           0      0.00%     36.98% |        4022     12.38%     49.36% |           0      0.00%     49.36% |           0      0.00%     49.36% |           0      0.00%     49.36% |        4088     12.58%     61.94% |           0      0.00%     61.94% |           0      0.00%     61.94% |           0      0.00%     61.94% |        4195     12.91%     74.85% |           0      0.00%     74.85% |           0      0.00%     74.85% |           0      0.00%     74.85% |        4114     12.66%     87.51% |           0      0.00%     87.51% |           0      0.00%     87.51% |           0      0.00%     87.51% |        4060     12.49%    100.00% |           0      0.00%    100.00% # Number of accesses per bank
system.ruby.dir_cntrl10.memBuffer.memBankCount::total        32495                       # Number of accesses per bank

system.ruby.dir_cntrl11.memBuffer.memReq        32455                       # Total number of memory requests
system.ruby.dir_cntrl11.memBuffer.memRead        21231                       # Number of memory reads
system.ruby.dir_cntrl11.memBuffer.memWrite        11224                       # Number of memory writes
system.ruby.dir_cntrl11.memBuffer.memRefresh       123602                       # Number of memory refreshes
system.ruby.dir_cntrl11.memBuffer.memWaitCycles        17902                       # Delay stalled at the head of the bank queue
system.ruby.dir_cntrl11.memBuffer.memInputQ           71                       # Delay in the input queue
system.ruby.dir_cntrl11.memBuffer.memBankQ          598                       # Delay behind the head of the bank queue
system.ruby.dir_cntrl11.memBuffer.totalStalls        18571                       # Total number of stall cycles
system.ruby.dir_cntrl11.memBuffer.stallsPerReq     0.572208                       # Expected number of stall cycles per request
system.ruby.dir_cntrl11.memBuffer.memBankBusy        15725                       # memory stalls due to busy bank
system.ruby.dir_cntrl11.memBuffer.memBusBusy         1319                       # memory stalls due to busy bus
system.ruby.dir_cntrl11.memBuffer.memReadWriteBusy          351                       # memory stalls due to read write turnaround
system.ruby.dir_cntrl11.memBuffer.memDataBusBusy          160                       # memory stalls due to read read turnaround
system.ruby.dir_cntrl11.memBuffer.memArbWait          347                       # memory stalls due to arbitration
system.ruby.dir_cntrl11.memBuffer.memBankCount |           0      0.00%      0.00% |           0      0.00%      0.00% |        4058     12.50%     12.50% |           0      0.00%     12.50% |           0      0.00%     12.50% |           0      0.00%     12.50% |        3997     12.32%     24.82% |           0      0.00%     24.82% |           0      0.00%     24.82% |           0      0.00%     24.82% |        4041     12.45%     37.27% |           0      0.00%     37.27% |           0      0.00%     37.27% |           0      0.00%     37.27% |        3981     12.27%     49.54% |           0      0.00%     49.54% |           0      0.00%     49.54% |           0      0.00%     49.54% |        4122     12.70%     62.24% |           0      0.00%     62.24% |           0      0.00%     62.24% |           0      0.00%     62.24% |        4190     12.91%     75.15% |           0      0.00%     75.15% |           0      0.00%     75.15% |           0      0.00%     75.15% |        4044     12.46%     87.61% |           0      0.00%     87.61% |           0      0.00%     87.61% |           0      0.00%     87.61% |        4022     12.39%    100.00% |           0      0.00%    100.00% # Number of accesses per bank
system.ruby.dir_cntrl11.memBuffer.memBankCount::total        32455                       # Number of accesses per bank

system.ruby.dir_cntrl12.memBuffer.memReq        32524                       # Total number of memory requests
system.ruby.dir_cntrl12.memBuffer.memRead        21267                       # Number of memory reads
system.ruby.dir_cntrl12.memBuffer.memWrite        11257                       # Number of memory writes
system.ruby.dir_cntrl12.memBuffer.memRefresh       123390                       # Number of memory refreshes
system.ruby.dir_cntrl12.memBuffer.memWaitCycles        18831                       # Delay stalled at the head of the bank queue
system.ruby.dir_cntrl12.memBuffer.memInputQ           68                       # Delay in the input queue
system.ruby.dir_cntrl12.memBuffer.memBankQ          938                       # Delay behind the head of the bank queue
system.ruby.dir_cntrl12.memBuffer.totalStalls        19837                       # Total number of stall cycles
system.ruby.dir_cntrl12.memBuffer.stallsPerReq     0.609919                       # Expected number of stall cycles per request
system.ruby.dir_cntrl12.memBuffer.memBankBusy        16598                       # memory stalls due to busy bank
system.ruby.dir_cntrl12.memBuffer.memBusBusy         1341                       # memory stalls due to busy bus
system.ruby.dir_cntrl12.memBuffer.memReadWriteBusy          317                       # memory stalls due to read write turnaround
system.ruby.dir_cntrl12.memBuffer.memDataBusBusy          173                       # memory stalls due to read read turnaround
system.ruby.dir_cntrl12.memBuffer.memArbWait          402                       # memory stalls due to arbitration
system.ruby.dir_cntrl12.memBuffer.memBankCount |           0      0.00%      0.00% |           0      0.00%      0.00% |           0      0.00%      0.00% |        4042     12.43%     12.43% |           0      0.00%     12.43% |           0      0.00%     12.43% |           0      0.00%     12.43% |        4015     12.34%     24.77% |           0      0.00%     24.77% |           0      0.00%     24.77% |           0      0.00%     24.77% |        4004     12.31%     37.08% |           0      0.00%     37.08% |           0      0.00%     37.08% |           0      0.00%     37.08% |        4044     12.43%     49.52% |           0      0.00%     49.52% |           0      0.00%     49.52% |           0      0.00%     49.52% |        4147     12.75%     62.27% |           0      0.00%     62.27% |           0      0.00%     62.27% |           0      0.00%     62.27% |        4154     12.77%     75.04% |           0      0.00%     75.04% |           0      0.00%     75.04% |           0      0.00%     75.04% |        4075     12.53%     87.57% |           0      0.00%     87.57% |           0      0.00%     87.57% |           0      0.00%     87.57% |        4043     12.43%    100.00% # Number of accesses per bank
system.ruby.dir_cntrl12.memBuffer.memBankCount::total        32524                       # Number of accesses per bank

system.ruby.dir_cntrl13.memBuffer.memReq        32621                       # Total number of memory requests
system.ruby.dir_cntrl13.memBuffer.memRead        21305                       # Number of memory reads
system.ruby.dir_cntrl13.memBuffer.memWrite        11316                       # Number of memory writes
system.ruby.dir_cntrl13.memBuffer.memRefresh       123356                       # Number of memory refreshes
system.ruby.dir_cntrl13.memBuffer.memWaitCycles        18850                       # Delay stalled at the head of the bank queue
system.ruby.dir_cntrl13.memBuffer.memInputQ           76                       # Delay in the input queue
system.ruby.dir_cntrl13.memBuffer.memBankQ          982                       # Delay behind the head of the bank queue
system.ruby.dir_cntrl13.memBuffer.totalStalls        19908                       # Total number of stall cycles
system.ruby.dir_cntrl13.memBuffer.stallsPerReq     0.610282                       # Expected number of stall cycles per request
system.ruby.dir_cntrl13.memBuffer.memBankBusy        16600                       # memory stalls due to busy bank
system.ruby.dir_cntrl13.memBuffer.memBusBusy         1351                       # memory stalls due to busy bus
system.ruby.dir_cntrl13.memBuffer.memReadWriteBusy          326                       # memory stalls due to read write turnaround
system.ruby.dir_cntrl13.memBuffer.memDataBusBusy          172                       # memory stalls due to read read turnaround
system.ruby.dir_cntrl13.memBuffer.memArbWait          401                       # memory stalls due to arbitration
system.ruby.dir_cntrl13.memBuffer.memBankCount |           0      0.00%      0.00% |           0      0.00%      0.00% |           0      0.00%      0.00% |        4040     12.38%     12.38% |           0      0.00%     12.38% |           0      0.00%     12.38% |           0      0.00%     12.38% |        4026     12.34%     24.73% |           0      0.00%     24.73% |           0      0.00%     24.73% |           0      0.00%     24.73% |        4039     12.38%     37.11% |           0      0.00%     37.11% |           0      0.00%     37.11% |           0      0.00%     37.11% |        3987     12.22%     49.33% |           0      0.00%     49.33% |           0      0.00%     49.33% |           0      0.00%     49.33% |        4171     12.79%     62.12% |           0      0.00%     62.12% |           0      0.00%     62.12% |           0      0.00%     62.12% |        4234     12.98%     75.10% |           0      0.00%     75.10% |           0      0.00%     75.10% |           0      0.00%     75.10% |        4109     12.60%     87.69% |           0      0.00%     87.69% |           0      0.00%     87.69% |           0      0.00%     87.69% |        4015     12.31%    100.00% # Number of accesses per bank
system.ruby.dir_cntrl13.memBuffer.memBankCount::total        32621                       # Number of accesses per bank

system.ruby.dir_cntrl14.memBuffer.memReq        32509                       # Total number of memory requests
system.ruby.dir_cntrl14.memBuffer.memRead        21240                       # Number of memory reads
system.ruby.dir_cntrl14.memBuffer.memWrite        11269                       # Number of memory writes
system.ruby.dir_cntrl14.memBuffer.memRefresh       122909                       # Number of memory refreshes
system.ruby.dir_cntrl14.memBuffer.memWaitCycles        17631                       # Delay stalled at the head of the bank queue
system.ruby.dir_cntrl14.memBuffer.memInputQ           84                       # Delay in the input queue
system.ruby.dir_cntrl14.memBuffer.memBankQ          869                       # Delay behind the head of the bank queue
system.ruby.dir_cntrl14.memBuffer.totalStalls        18584                       # Total number of stall cycles
system.ruby.dir_cntrl14.memBuffer.stallsPerReq     0.571657                       # Expected number of stall cycles per request
system.ruby.dir_cntrl14.memBuffer.memBankBusy        15432                       # memory stalls due to busy bank
system.ruby.dir_cntrl14.memBuffer.memBusBusy         1342                       # memory stalls due to busy bus
system.ruby.dir_cntrl14.memBuffer.memReadWriteBusy          335                       # memory stalls due to read write turnaround
system.ruby.dir_cntrl14.memBuffer.memDataBusBusy          144                       # memory stalls due to read read turnaround
system.ruby.dir_cntrl14.memBuffer.memArbWait          378                       # memory stalls due to arbitration
system.ruby.dir_cntrl14.memBuffer.memBankCount |           0      0.00%      0.00% |           0      0.00%      0.00% |           0      0.00%      0.00% |        4008     12.33%     12.33% |           0      0.00%     12.33% |           0      0.00%     12.33% |           0      0.00%     12.33% |        3926     12.08%     24.41% |           0      0.00%     24.41% |           0      0.00%     24.41% |           0      0.00%     24.41% |        4083     12.56%     36.97% |           0      0.00%     36.97% |           0      0.00%     36.97% |           0      0.00%     36.97% |        3986     12.26%     49.23% |           0      0.00%     49.23% |           0      0.00%     49.23% |           0      0.00%     49.23% |        4106     12.63%     61.86% |           0      0.00%     61.86% |           0      0.00%     61.86% |           0      0.00%     61.86% |        4264     13.12%     74.97% |           0      0.00%     74.97% |           0      0.00%     74.97% |           0      0.00%     74.97% |        4111     12.65%     87.62% |           0      0.00%     87.62% |           0      0.00%     87.62% |           0      0.00%     87.62% |        4025     12.38%    100.00% # Number of accesses per bank
system.ruby.dir_cntrl14.memBuffer.memBankCount::total        32509                       # Number of accesses per bank

system.ruby.dir_cntrl15.memBuffer.memReq        32706                       # Total number of memory requests
system.ruby.dir_cntrl15.memBuffer.memRead        21350                       # Number of memory reads
system.ruby.dir_cntrl15.memBuffer.memWrite        11356                       # Number of memory writes
system.ruby.dir_cntrl15.memBuffer.memRefresh       123804                       # Number of memory refreshes
system.ruby.dir_cntrl15.memBuffer.memWaitCycles        17862                       # Delay stalled at the head of the bank queue
system.ruby.dir_cntrl15.memBuffer.memInputQ           87                       # Delay in the input queue
system.ruby.dir_cntrl15.memBuffer.memBankQ         1005                       # Delay behind the head of the bank queue
system.ruby.dir_cntrl15.memBuffer.totalStalls        18954                       # Total number of stall cycles
system.ruby.dir_cntrl15.memBuffer.stallsPerReq     0.579527                       # Expected number of stall cycles per request
system.ruby.dir_cntrl15.memBuffer.memBankBusy        15466                       # memory stalls due to busy bank
system.ruby.dir_cntrl15.memBuffer.memBusBusy         1408                       # memory stalls due to busy bus
system.ruby.dir_cntrl15.memBuffer.memReadWriteBusy          397                       # memory stalls due to read write turnaround
system.ruby.dir_cntrl15.memBuffer.memDataBusBusy          177                       # memory stalls due to read read turnaround
system.ruby.dir_cntrl15.memBuffer.memArbWait          414                       # memory stalls due to arbitration
system.ruby.dir_cntrl15.memBuffer.memBankCount |           0      0.00%      0.00% |           0      0.00%      0.00% |           0      0.00%      0.00% |        4053     12.39%     12.39% |           0      0.00%     12.39% |           0      0.00%     12.39% |           0      0.00%     12.39% |        4061     12.42%     24.81% |           0      0.00%     24.81% |           0      0.00%     24.81% |           0      0.00%     24.81% |        4000     12.23%     37.04% |           0      0.00%     37.04% |           0      0.00%     37.04% |           0      0.00%     37.04% |        4074     12.46%     49.50% |           0      0.00%     49.50% |           0      0.00%     49.50% |           0      0.00%     49.50% |        4205     12.86%     62.35% |           0      0.00%     62.35% |           0      0.00%     62.35% |           0      0.00%     62.35% |        4098     12.53%     74.88% |           0      0.00%     74.88% |           0      0.00%     74.88% |           0      0.00%     74.88% |        4120     12.60%     87.48% |           0      0.00%     87.48% |           0      0.00%     87.48% |           0      0.00%     87.48% |        4095     12.52%    100.00% # Number of accesses per bank
system.ruby.dir_cntrl15.memBuffer.memBankCount::total        32706                       # Number of accesses per bank

system.cpu00.workload.num_syscalls                168                       # Number of system calls
system.cpu00.numCycles                       77456432                       # number of cpu cycles simulated
system.cpu00.numWorkItemsStarted                    0                       # number of work items this cpu started
system.cpu00.numWorkItemsCompleted                  0                       # number of work items this cpu completed
system.cpu00.committedInsts                   5714879                       # Number of instructions committed
system.cpu00.committedOps                     8792667                       # Number of ops (including micro ops) committed
system.cpu00.num_int_alu_accesses             3974328                       # Number of integer alu accesses
system.cpu00.num_fp_alu_accesses              5682057                       # Number of float alu accesses
system.cpu00.num_func_calls                      1458                       # number of times a function call or return occured
system.cpu00.num_conditional_control_insts       214723                       # number of instructions that are conditional controls
system.cpu00.num_int_insts                    3974328                       # number of integer instructions
system.cpu00.num_fp_insts                     5682057                       # number of float instructions
system.cpu00.num_int_register_reads           8398546                       # number of times the integer registers were read
system.cpu00.num_int_register_writes          4991152                       # number of times the integer registers were written
system.cpu00.num_fp_register_reads           12722058                       # number of times the floating registers were read
system.cpu00.num_fp_register_writes           5249842                       # number of times the floating registers were written
system.cpu00.num_mem_refs                      777013                       # number of memory refs
system.cpu00.num_load_insts                    494331                       # Number of load instructions
system.cpu00.num_store_insts                   282682                       # Number of store instructions
system.cpu00.num_idle_cycles                        0                       # Number of idle cycles
system.cpu00.num_busy_cycles                 77456432                       # Number of busy cycles
system.cpu00.not_idle_fraction                      1                       # Percentage of non-idle cycles
system.cpu00.idle_fraction                          0                       # Percentage of idle cycles
system.cpu01.numCycles                       77105266                       # number of cpu cycles simulated
system.cpu01.numWorkItemsStarted                    0                       # number of work items this cpu started
system.cpu01.numWorkItemsCompleted                  0                       # number of work items this cpu completed
system.cpu01.committedInsts                   5698085                       # Number of instructions committed
system.cpu01.committedOps                     8730347                       # Number of ops (including micro ops) committed
system.cpu01.num_int_alu_accesses             3913314                       # Number of integer alu accesses
system.cpu01.num_fp_alu_accesses              5681255                       # Number of float alu accesses
system.cpu01.num_func_calls                       110                       # number of times a function call or return occured
system.cpu01.num_conditional_control_insts       214542                       # number of instructions that are conditional controls
system.cpu01.num_int_insts                    3913314                       # number of integer instructions
system.cpu01.num_fp_insts                     5681255                       # number of float instructions
system.cpu01.num_int_register_reads           8299100                       # number of times the integer registers were read
system.cpu01.num_int_register_writes          4887016                       # number of times the integer registers were written
system.cpu01.num_fp_register_reads           12720293                       # number of times the floating registers were read
system.cpu01.num_fp_register_writes           5249114                       # number of times the floating registers were written
system.cpu01.num_mem_refs                      779790                       # number of memory refs
system.cpu01.num_load_insts                    496113                       # Number of load instructions
system.cpu01.num_store_insts                   283677                       # Number of store instructions
system.cpu01.num_idle_cycles             817664.056379                       # Number of idle cycles
system.cpu01.num_busy_cycles             76287601.943621                       # Number of busy cycles
system.cpu01.not_idle_fraction               0.989395                       # Percentage of non-idle cycles
system.cpu01.idle_fraction                   0.010605                       # Percentage of idle cycles
system.cpu02.numCycles                       77103084                       # number of cpu cycles simulated
system.cpu02.numWorkItemsStarted                    0                       # number of work items this cpu started
system.cpu02.numWorkItemsCompleted                  0                       # number of work items this cpu completed
system.cpu02.committedInsts                   5695171                       # Number of instructions committed
system.cpu02.committedOps                     8740037                       # Number of ops (including micro ops) committed
system.cpu02.num_int_alu_accesses             3918351                       # Number of integer alu accesses
system.cpu02.num_fp_alu_accesses              5698265                       # Number of float alu accesses
system.cpu02.num_func_calls                       106                       # number of times a function call or return occured
system.cpu02.num_conditional_control_insts       211166                       # number of instructions that are conditional controls
system.cpu02.num_int_insts                    3918351                       # number of integer instructions
system.cpu02.num_fp_insts                     5698265                       # number of float instructions
system.cpu02.num_int_register_reads           8283213                       # number of times the integer registers were read
system.cpu02.num_int_register_writes          4899322                       # number of times the integer registers were written
system.cpu02.num_fp_register_reads           12738095                       # number of times the floating registers were read
system.cpu02.num_fp_register_writes           5261981                       # number of times the floating registers were written
system.cpu02.num_mem_refs                      781364                       # number of memory refs
system.cpu02.num_load_insts                    497531                       # Number of load instructions
system.cpu02.num_store_insts                   283833                       # Number of store instructions
system.cpu02.num_idle_cycles             821204.585745                       # Number of idle cycles
system.cpu02.num_busy_cycles             76281879.414255                       # Number of busy cycles
system.cpu02.not_idle_fraction               0.989349                       # Percentage of non-idle cycles
system.cpu02.idle_fraction                   0.010651                       # Percentage of idle cycles
system.cpu03.numCycles                       77103448                       # number of cpu cycles simulated
system.cpu03.numWorkItemsStarted                    0                       # number of work items this cpu started
system.cpu03.numWorkItemsCompleted                  0                       # number of work items this cpu completed
system.cpu03.committedInsts                   5718089                       # Number of instructions committed
system.cpu03.committedOps                     8767334                       # Number of ops (including micro ops) committed
system.cpu03.num_int_alu_accesses             3949727                       # Number of integer alu accesses
system.cpu03.num_fp_alu_accesses              5681917                       # Number of float alu accesses
system.cpu03.num_func_calls                        86                       # number of times a function call or return occured
system.cpu03.num_conditional_control_insts       217623                       # number of instructions that are conditional controls
system.cpu03.num_int_insts                    3949727                       # number of integer instructions
system.cpu03.num_fp_insts                     5681917                       # number of float instructions
system.cpu03.num_int_register_reads           8384204                       # number of times the integer registers were read
system.cpu03.num_int_register_writes          4936139                       # number of times the integer registers were written
system.cpu03.num_fp_register_reads           12721791                       # number of times the floating registers were read
system.cpu03.num_fp_register_writes           5249726                       # number of times the floating registers were written
system.cpu03.num_mem_refs                      790771                       # number of memory refs
system.cpu03.num_load_insts                    503941                       # Number of load instructions
system.cpu03.num_store_insts                   286830                       # Number of store instructions
system.cpu03.num_idle_cycles             842540.801942                       # Number of idle cycles
system.cpu03.num_busy_cycles             76260907.198058                       # Number of busy cycles
system.cpu03.not_idle_fraction               0.989073                       # Percentage of non-idle cycles
system.cpu03.idle_fraction                   0.010927                       # Percentage of idle cycles
system.cpu04.numCycles                       77104072                       # number of cpu cycles simulated
system.cpu04.numWorkItemsStarted                    0                       # number of work items this cpu started
system.cpu04.numWorkItemsCompleted                  0                       # number of work items this cpu completed
system.cpu04.committedInsts                   5710559                       # Number of instructions committed
system.cpu04.committedOps                     8778714                       # Number of ops (including micro ops) committed
system.cpu04.num_int_alu_accesses             3952831                       # Number of integer alu accesses
system.cpu04.num_fp_alu_accesses              5714726                       # Number of float alu accesses
system.cpu04.num_func_calls                       120                       # number of times a function call or return occured
system.cpu04.num_conditional_control_insts       211865                       # number of instructions that are conditional controls
system.cpu04.num_int_insts                    3952831                       # number of integer instructions
system.cpu04.num_fp_insts                     5714726                       # number of float instructions
system.cpu04.num_int_register_reads           8350848                       # number of times the integer registers were read
system.cpu04.num_int_register_writes          4940802                       # number of times the integer registers were written
system.cpu04.num_fp_register_reads           12754651                       # number of times the floating registers were read
system.cpu04.num_fp_register_writes           5274340                       # number of times the floating registers were written
system.cpu04.num_mem_refs                      794546                       # number of memory refs
system.cpu04.num_load_insts                    507198                       # Number of load instructions
system.cpu04.num_store_insts                   287348                       # Number of store instructions
system.cpu04.num_idle_cycles             863065.853811                       # Number of idle cycles
system.cpu04.num_busy_cycles             76241006.146189                       # Number of busy cycles
system.cpu04.not_idle_fraction               0.988806                       # Percentage of non-idle cycles
system.cpu04.idle_fraction                   0.011194                       # Percentage of idle cycles
system.cpu05.numCycles                       77104290                       # number of cpu cycles simulated
system.cpu05.numWorkItemsStarted                    0                       # number of work items this cpu started
system.cpu05.numWorkItemsCompleted                  0                       # number of work items this cpu completed
system.cpu05.committedInsts                   5750721                       # Number of instructions committed
system.cpu05.committedOps                     8809656                       # Number of ops (including micro ops) committed
system.cpu05.num_int_alu_accesses             3992024                       # Number of integer alu accesses
system.cpu05.num_fp_alu_accesses              5681953                       # Number of float alu accesses
system.cpu05.num_func_calls                        72                       # number of times a function call or return occured
system.cpu05.num_conditional_control_insts       224031                       # number of instructions that are conditional controls
system.cpu05.num_int_insts                    3992024                       # number of integer instructions
system.cpu05.num_fp_insts                     5681953                       # number of float instructions
system.cpu05.num_int_register_reads           8519262                       # number of times the integer registers were read
system.cpu05.num_int_register_writes          4977776                       # number of times the integer registers were written
system.cpu05.num_fp_register_reads           12721871                       # number of times the floating registers were read
system.cpu05.num_fp_register_writes           5249759                       # number of times the floating registers were written
system.cpu05.num_mem_refs                      810610                       # number of memory refs
system.cpu05.num_load_insts                    517256                       # Number of load instructions
system.cpu05.num_store_insts                   293354                       # Number of store instructions
system.cpu05.num_idle_cycles             863562.039021                       # Number of idle cycles
system.cpu05.num_busy_cycles             76240727.960979                       # Number of busy cycles
system.cpu05.not_idle_fraction               0.988800                       # Percentage of non-idle cycles
system.cpu05.idle_fraction                   0.011200                       # Percentage of idle cycles
[...]
system.ruby.l2_cntrl0.MM.Exclusive_Unblock::total       407382                      

system.ruby.l2_cntrl0.OO.Exclusive_Unblock |       12253      6.29%      6.29% |       11953      6.14%     12.43% |       12013      6.17%     18.60% |       12128      6.23%     24.82% |       12136      6.23%     31.05% |       12150      6.24%     37.29% |       12274      6.30%     43.59% |       12277      6.30%     49.90% |       12303      6.32%     56.21% |       12274      6.30%     62.52% |       12204      6.27%     68.78% |       12187      6.26%     75.04% |       12287      6.31%     81.35% |       12198      6.26%     87.61% |       12066      6.20%     93.81% |       12063      6.19%    100.00%
system.ruby.l2_cntrl0.OO.Exclusive_Unblock::total       194766                      

system.ruby.l2_cntrl0.OLSXS.Unblock      |          15      4.75%      4.75% |          14      4.43%      9.18% |          18      5.70%     14.87% |          53     16.77%     31.65% |          16      5.06%     36.71% |          16      5.06%     41.77% |          14      4.43%     46.20% |          14      4.43%     50.63% |          15      4.75%     55.38% |          12      3.80%     59.18% |          12      3.80%     62.97% |          12      3.80%     66.77% |          15      4.75%     71.52% |          18      5.70%     77.22% |          16      5.06%     82.28% |          56     17.72%    100.00%
system.ruby.l2_cntrl0.OLSXS.Unblock::total          316                      

system.ruby.l2_cntrl0.MI.L1_GETS         |           0      0.00%      0.00% |           0      0.00%      0.00% |           0      0.00%      0.00% |           0      0.00%      0.00% |           1    100.00%    100.00% |           0      0.00%    100.00% |           0      0.00%    100.00% |           0      0.00%    100.00% |           0      0.00%    100.00% |           0      0.00%    100.00% |           0      0.00%    100.00% |           0      0.00%    100.00% |           0      0.00%    100.00% |           0      0.00%    100.00% |           0      0.00%    100.00% |           0      0.00%    100.00%
system.ruby.l2_cntrl0.MI.L1_GETS::total             1                      

system.ruby.l2_cntrl0.MI.Writeback_Ack   |       16773      6.24%      6.24% |       16811      6.25%     12.49% |       16827      6.26%     18.75% |       16767      6.24%     24.99% |       16759      6.23%     31.22% |       16803      6.25%     37.47% |       16783      6.24%     43.71% |       16698      6.21%     49.92% |       16770      6.24%     56.16% |       16963      6.31%     62.47% |       16804      6.25%     68.72% |       16773      6.24%     74.96% |       16811      6.25%     81.21% |       16849      6.27%     87.48% |       16782      6.24%     93.72% |       16892      6.28%    100.00%
system.ruby.l2_cntrl0.MI.Writeback_Ack::total       268865                      

system.ruby.l2_cntrl0.OLSI.Writeback_Ack |           0      0.00%      0.00% |           0      0.00%      0.00% |           0      0.00%      0.00% |           1     33.33%     33.33% |           0      0.00%     33.33% |           0      0.00%     33.33% |           0      0.00%     33.33% |           0      0.00%     33.33% |           0      0.00%     33.33% |           0      0.00%     33.33% |           0      0.00%     33.33% |           1     33.33%     66.67% |           1     33.33%    100.00% |           0      0.00%    100.00% |           0      0.00%    100.00% |           0      0.00%    100.00%
system.ruby.l2_cntrl0.OLSI.Writeback_Ack::total            3                      

system.ruby.dir_cntrl0.GETX              |       13827      6.27%      6.27% |       13784      6.25%     12.51% |       13841      6.27%     18.79% |       13743      6.23%     25.02% |       13752      6.23%     31.25% |       13780      6.25%     37.49% |       13803      6.26%     43.75% |       13712      6.21%     49.96% |       13774      6.24%     56.21% |       13900      6.30%     62.51% |       13759      6.24%     68.74% |       13742      6.23%     74.97% |       13778      6.24%     81.21% |       13798      6.25%     87.47% |       13779      6.24%     93.71% |       13873      6.29%    100.00%
system.ruby.dir_cntrl0.GETX::total             220645                      

system.ruby.dir_cntrl0.GETS              |        7400      6.19%      6.19% |        7481      6.26%     12.45% |        7438      6.22%     18.68% |        7457      6.24%     24.92% |        7475      6.26%     31.18% |        7477      6.26%     37.43% |        7420      6.21%     43.64% |        7444      6.23%     49.87% |        7455      6.24%     56.11% |        7515      6.29%     62.40% |        7504      6.28%     68.68% |        7489      6.27%     74.95% |        7489      6.27%     81.22% |        7507      6.28%     87.50% |        7461      6.24%     93.74% |        7477      6.26%    100.00%
system.ruby.dir_cntrl0.GETS::total             119489                      

system.ruby.dir_cntrl0.PUTX              |       16773      6.24%      6.24% |       16811      6.25%     12.49% |       16827      6.26%     18.75% |       16767      6.24%     24.99% |       16759      6.23%     31.22% |       16803      6.25%     37.47% |       16783      6.24%     43.71% |       16698      6.21%     49.92% |       16770      6.24%     56.16% |       16963      6.31%     62.47% |       16804      6.25%     68.72% |       16773      6.24%     74.96% |       16811      6.25%     81.21% |       16849      6.27%     87.48% |       16782      6.24%     93.72% |       16892      6.28%    100.00%
system.ruby.dir_cntrl0.PUTX::total             268865                      

system.ruby.dir_cntrl0.PUTO_SHARERS      |           0      0.00%      0.00% |           0      0.00%      0.00% |           0      0.00%      0.00% |           1     33.33%     33.33% |           0      0.00%     33.33% |           0      0.00%     33.33% |           0      0.00%     33.33% |           0      0.00%     33.33% |           0      0.00%     33.33% |           0      0.00%     33.33% |           0      0.00%     33.33% |           1     33.33%     66.67% |           1     33.33%    100.00% |           0      0.00%    100.00% |           0      0.00%    100.00% |           0      0.00%    100.00%
system.ruby.dir_cntrl0.PUTO_SHARERS::total            3                      

system.ruby.dir_cntrl0.Exclusive_Unblock |       21227      6.24%      6.24% |       21265      6.25%     12.49% |       21279      6.26%     18.75% |       21200      6.23%     24.98% |       21227      6.24%     31.22% |       21257      6.25%     37.47% |       21223      6.24%     43.71% |       21156      6.22%     49.93% |       21229      6.24%     56.17% |       21415      6.30%     62.47% |       21263      6.25%     68.72% |       21231      6.24%     74.96% |       21267      6.25%     81.21% |       21305      6.26%     87.48% |       21240      6.24%     93.72% |       21350      6.28%    100.00%
system.ruby.dir_cntrl0.Exclusive_Unblock::total       340134                      

system.ruby.dir_cntrl0.Clean_Writeback   |        5502      6.20%      6.20% |        5529      6.23%     12.43% |        5548      6.25%     18.68% |        5594      6.30%     24.98% |        5586      6.29%     31.27% |        5563      6.27%     37.54% |        5509      6.21%     43.75% |        5531      6.23%     49.98% |        5545      6.25%     56.23% |        5597      6.31%     62.53% |        5572      6.28%     68.81% |        5550      6.25%     75.06% |        5555      6.26%     81.32% |        5533      6.23%     87.55% |        5513      6.21%     93.76% |        5536      6.24%    100.00%
system.ruby.dir_cntrl0.Clean_Writeback::total        88763                      

system.ruby.dir_cntrl0.Dirty_Writeback   |       11271      6.26%      6.26% |       11282      6.26%     12.52% |       11279      6.26%     18.78% |       11174      6.20%     24.99% |       11173      6.20%     31.19% |       11240      6.24%     37.43% |       11274      6.26%     43.69% |       11167      6.20%     49.89% |       11225      6.23%     56.13% |       11366      6.31%     62.44% |       11232      6.24%     68.67% |       11224      6.23%     74.90% |       11257      6.25%     81.15% |       11316      6.28%     87.44% |       11269      6.26%     93.69% |       11356      6.31%    100.00%
system.ruby.dir_cntrl0.Dirty_Writeback::total       180105                      

system.ruby.dir_cntrl0.Memory_Data       |       21227      6.24%      6.24% |       21265      6.25%     12.49% |       21279      6.26%     18.75% |       21200      6.23%     24.98% |       21227      6.24%     31.22% |       21257      6.25%     37.47% |       21223      6.24%     43.71% |       21156      6.22%     49.93% |       21229      6.24%     56.17% |       21415      6.30%     62.47% |       21263      6.25%     68.72% |       21231      6.24%     74.96% |       21267      6.25%     81.21% |       21305      6.26%     87.48% |       21240      6.24%     93.72% |       21350      6.28%    100.00%
system.ruby.dir_cntrl0.Memory_Data::total       340134                      

system.ruby.dir_cntrl0.Memory_Ack        |       11271      6.26%      6.26% |       11282      6.26%     12.52% |       11279      6.26%     18.78% |       11174      6.20%     24.99% |       11173      6.20%     31.19% |       11240      6.24%     37.43% |       11274      6.26%     43.69% |       11167      6.20%     49.89% |       11225      6.23%     56.13% |       11366      6.31%     62.44% |       11232      6.24%     68.67% |       11224      6.23%     74.90% |       11257      6.25%     81.15% |       11316      6.28%     87.44% |       11269      6.26%     93.69% |       11356      6.31%    100.00%
system.ruby.dir_cntrl0.Memory_Ack::total       180105                      

system.ruby.dir_cntrl0.I.GETX            |       13827      6.27%      6.27% |       13784      6.25%     12.51% |       13841      6.27%     18.79% |       13743      6.23%     25.02% |       13752      6.23%     31.25% |       13780      6.25%     37.49% |       13803      6.26%     43.75% |       13712      6.21%     49.96% |       13774      6.24%     56.21% |       13900      6.30%     62.51% |       13759      6.24%     68.74% |       13742      6.23%     74.97% |       13778      6.24%     81.21% |       13798      6.25%     87.47% |       13779      6.24%     93.71% |       13873      6.29%    100.00%
system.ruby.dir_cntrl0.I.GETX::total           220645                      

system.ruby.dir_cntrl0.I.GETS            |        7400      6.19%      6.19% |        7481      6.26%     12.45% |        7438      6.22%     18.68% |        7457      6.24%     24.92% |        7475      6.26%     31.18% |        7477      6.26%     37.43% |        7420      6.21%     43.64% |        7444      6.23%     49.87% |        7455      6.24%     56.11% |        7515      6.29%     62.40% |        7504      6.28%     68.68% |        7489      6.27%     74.95% |        7489      6.27%     81.22% |        7507      6.28%     87.50% |        7461      6.24%     93.74% |        7477      6.26%    100.00%
system.ruby.dir_cntrl0.I.GETS::total           119489                      

system.ruby.dir_cntrl0.I.Memory_Ack      |       11271      6.26%      6.26% |       11282      6.26%     12.52% |       11278      6.26%     18.78% |       11173      6.20%     24.99% |       11172      6.20%     31.19% |       11240      6.24%     37.43% |       11274      6.26%     43.69% |       11167      6.20%     49.89% |       11225      6.23%     56.13% |       11365      6.31%     62.44% |       11231      6.24%     68.67% |       11224      6.23%     74.90% |       11257      6.25%     81.15% |       11316      6.28%     87.44% |       11269      6.26%     93.69% |       11356      6.31%    100.00%
system.ruby.dir_cntrl0.I.Memory_Ack::total       180100                      

system.ruby.dir_cntrl0.M.PUTX            |       16773      6.24%      6.24% |       16811      6.25%     12.49% |       16827      6.26%     18.75% |       16767      6.24%     24.99% |       16759      6.23%     31.22% |       16803      6.25%     37.47% |       16783      6.24%     43.71% |       16698      6.21%     49.92% |       16770      6.24%     56.16% |       16963      6.31%     62.47% |       16804      6.25%     68.72% |       16773      6.24%     74.96% |       16811      6.25%     81.21% |       16849      6.27%     87.48% |       16782      6.24%     93.72% |       16892      6.28%    100.00%
system.ruby.dir_cntrl0.M.PUTX::total           268865                      

system.ruby.dir_cntrl0.M.PUTO_SHARERS    |           0      0.00%      0.00% |           0      0.00%      0.00% |           0      0.00%      0.00% |           1     33.33%     33.33% |           0      0.00%     33.33% |           0      0.00%     33.33% |           0      0.00%     33.33% |           0      0.00%     33.33% |           0      0.00%     33.33% |           0      0.00%     33.33% |           0      0.00%     33.33% |           1     33.33%     66.67% |           1     33.33%    100.00% |           0      0.00%    100.00% |           0      0.00%    100.00% |           0      0.00%    100.00%
system.ruby.dir_cntrl0.M.PUTO_SHARERS::total            3                      

system.ruby.dir_cntrl0.IS.Exclusive_Unblock |        7400      6.19%      6.19% |        7481      6.26%     12.45% |        7438      6.22%     18.68% |        7457      6.24%     24.92% |        7475      6.26%     31.18% |        7477      6.26%     37.43% |        7420      6.21%     43.64% |        7444      6.23%     49.87% |        7455      6.24%     56.11% |        7515      6.29%     62.40% |        7504      6.28%     68.68% |        7489      6.27%     74.95% |        7489      6.27%     81.22% |        7507      6.28%     87.50% |        7461      6.24%     93.74% |        7477      6.26%    100.00%
system.ruby.dir_cntrl0.IS.Exclusive_Unblock::total       119489                      

system.ruby.dir_cntrl0.IS.Memory_Data    |        7400      6.19%      6.19% |        7481      6.26%     12.45% |        7438      6.22%     18.68% |        7457      6.24%     24.92% |        7475      6.26%     31.18% |        7477      6.26%     37.43% |        7420      6.21%     43.64% |        7444      6.23%     49.87% |        7455      6.24%     56.11% |        7515      6.29%     62.40% |        7504      6.28%     68.68% |        7489      6.27%     74.95% |        7489      6.27%     81.22% |        7507      6.28%     87.50% |        7461      6.24%     93.74% |        7477      6.26%    100.00%
system.ruby.dir_cntrl0.IS.Memory_Data::total       119489                      

system.ruby.dir_cntrl0.IS.Memory_Ack     |           0      0.00%      0.00% |           0      0.00%      0.00% |           0      0.00%      0.00% |           1     33.33%     33.33% |           1     33.33%     66.67% |           0      0.00%     66.67% |           0      0.00%     66.67% |           0      0.00%     66.67% |           0      0.00%     66.67% |           0      0.00%     66.67% |           1     33.33%    100.00% |           0      0.00%    100.00% |           0      0.00%    100.00% |           0      0.00%    100.00% |           0      0.00%    100.00% |           0      0.00%    100.00%
system.ruby.dir_cntrl0.IS.Memory_Ack::total            3                      

system.ruby.dir_cntrl0.MM.Exclusive_Unblock |       13827      6.27%      6.27% |       13784      6.25%     12.51% |       13841      6.27%     18.79% |       13743      6.23%     25.02% |       13752      6.23%     31.25% |       13780      6.25%     37.49% |       13803      6.26%     43.75% |       13712      6.21%     49.96% |       13774      6.24%     56.21% |       13900      6.30%     62.51% |       13759      6.24%     68.74% |       13742      6.23%     74.97% |       13778      6.24%     81.21% |       13798      6.25%     87.47% |       13779      6.24%     93.71% |       13873      6.29%    100.00%
system.ruby.dir_cntrl0.MM.Exclusive_Unblock::total       220645                      

system.ruby.dir_cntrl0.MM.Memory_Data    |       13827      6.27%      6.27% |       13784      6.25%     12.51% |       13841      6.27%     18.79% |       13743      6.23%     25.02% |       13752      6.23%     31.25% |       13780      6.25%     37.49% |       13803      6.26%     43.75% |       13712      6.21%     49.96% |       13774      6.24%     56.21% |       13900      6.30%     62.51% |       13759      6.24%     68.74% |       13742      6.23%     74.97% |       13778      6.24%     81.21% |       13798      6.25%     87.47% |       13779      6.24%     93.71% |       13873      6.29%    100.00%
system.ruby.dir_cntrl0.MM.Memory_Data::total       220645                      

system.ruby.dir_cntrl0.MM.Memory_Ack     |           0      0.00%      0.00% |           0      0.00%      0.00% |           1     50.00%     50.00% |           0      0.00%     50.00% |           0      0.00%     50.00% |           0      0.00%     50.00% |           0      0.00%     50.00% |           0      0.00%     50.00% |           0      0.00%     50.00% |           1     50.00%    100.00% |           0      0.00%    100.00% |           0      0.00%    100.00% |           0      0.00%    100.00% |           0      0.00%    100.00% |           0      0.00%    100.00% |           0      0.00%    100.00%
system.ruby.dir_cntrl0.MM.Memory_Ack::total            2                      

system.ruby.dir_cntrl0.MI.Clean_Writeback |        5502      6.20%      6.20% |        5529      6.23%     12.43% |        5548      6.25%     18.68% |        5593      6.30%     24.98% |        5586      6.29%     31.27% |        5563      6.27%     37.54% |        5509      6.21%     43.75% |        5531      6.23%     49.98% |        5545      6.25%     56.23% |        5597      6.31%     62.53% |        5572      6.28%     68.81% |        5549      6.25%     75.06% |        5554      6.26%     81.32% |        5533      6.23%     87.55% |        5513      6.21%     93.76% |        5536      6.24%    100.00%
system.ruby.dir_cntrl0.MI.Clean_Writeback::total        88760                      

system.ruby.dir_cntrl0.MI.Dirty_Writeback |       11271      6.26%      6.26% |       11282      6.26%     12.52% |       11279      6.26%     18.78% |       11174      6.20%     24.99% |       11173      6.20%     31.19% |       11240      6.24%     37.43% |       11274      6.26%     43.69% |       11167      6.20%     49.89% |       11225      6.23%     56.13% |       11366      6.31%     62.44% |       11232      6.24%     68.67% |       11224      6.23%     74.90% |       11257      6.25%     81.15% |       11316      6.28%     87.44% |       11269      6.26%     93.69% |       11356      6.31%    100.00%
system.ruby.dir_cntrl0.MI.Dirty_Writeback::total       180105                      

system.ruby.dir_cntrl0.MIS.Clean_Writeback |           0      0.00%      0.00% |           0      0.00%      0.00% |           0      0.00%      0.00% |           1     33.33%     33.33% |           0      0.00%     33.33% |           0      0.00%     33.33% |           0      0.00%     33.33% |           0      0.00%     33.33% |           0      0.00%     33.33% |           0      0.00%     33.33% |           0      0.00%     33.33% |           1     33.33%     66.67% |           1     33.33%    100.00% |           0      0.00%    100.00% |           0      0.00%    100.00% |           0      0.00%    100.00%
system.ruby.dir_cntrl0.MIS.Clean_Writeback::total            3                      


---------- End Simulation Statistics   ----------
