
---------- Begin Simulation Statistics ----------
sim_seconds                                  1.158396                       # Number of seconds simulated
sim_ticks                                1158396231000                       # Number of ticks simulated
final_tick                               1158396231000                       # Number of ticks from beginning of simulation (restored from checkpoints and never reset)
sim_freq                                 1000000000000                       # Frequency of simulated ticks
host_inst_rate                                 110865                       # Simulator instruction rate (inst/s)
host_op_rate                                   171494                       # Simulator op (including micro ops) rate (op/s)
host_tick_rate                               63840579                       # Simulator tick rate (ticks/s)
host_mem_usage                                 366812                       # Number of bytes of host memory used
host_seconds                                 18145.14                       # Real time elapsed on the host
sim_insts                                  2011656889                       # Number of instructions simulated
sim_ops                                    3111780775                       # Number of ops (including micro ops) simulated
system.ruby.l2_cntrl5.L2cache.demand_hits      1216815                       # Number of cache demand hits
system.ruby.l2_cntrl5.L2cache.demand_misses       116843                       # Number of cache demand misses
system.ruby.l2_cntrl5.L2cache.demand_accesses      1333658                       # Number of cache demand accesses
system.ruby.l2_cntrl4.L2cache.demand_hits      1230682                       # Number of cache demand hits
system.ruby.l2_cntrl4.L2cache.demand_misses       112330                       # Number of cache demand misses
system.ruby.l2_cntrl4.L2cache.demand_accesses      1343012                       # Number of cache demand accesses
system.ruby.l2_cntrl11.L2cache.demand_hits      1068598                       # Number of cache demand hits
system.ruby.l2_cntrl11.L2cache.demand_misses       110898                       # Number of cache demand misses
system.ruby.l2_cntrl11.L2cache.demand_accesses      1179496                       # Number of cache demand accesses
system.ruby.l2_cntrl10.L2cache.demand_hits       909794                       # Number of cache demand hits
system.ruby.l2_cntrl10.L2cache.demand_misses        67670                       # Number of cache demand misses
system.ruby.l2_cntrl10.L2cache.demand_accesses       977464                       # Number of cache demand accesses
system.ruby.l2_cntrl13.L2cache.demand_hits       829943                       # Number of cache demand hits
system.ruby.l2_cntrl13.L2cache.demand_misses        96953                       # Number of cache demand misses
system.ruby.l2_cntrl13.L2cache.demand_accesses       926896                       # Number of cache demand accesses
system.ruby.l2_cntrl12.L2cache.demand_hits      1093165                       # Number of cache demand hits
system.ruby.l2_cntrl12.L2cache.demand_misses       106350                       # Number of cache demand misses
system.ruby.l2_cntrl12.L2cache.demand_accesses      1199515                       # Number of cache demand accesses
system.ruby.l2_cntrl15.L2cache.demand_hits       818833                       # Number of cache demand hits
system.ruby.l2_cntrl15.L2cache.demand_misses        87444                       # Number of cache demand misses
system.ruby.l2_cntrl15.L2cache.demand_accesses       906277                       # Number of cache demand accesses
system.ruby.l2_cntrl14.L2cache.demand_hits      1215764                       # Number of cache demand hits
system.ruby.l2_cntrl14.L2cache.demand_misses       112721                       # Number of cache demand misses
system.ruby.l2_cntrl14.L2cache.demand_accesses      1328485                       # Number of cache demand accesses
system.ruby.l1_cntrl4.L1Dcache.demand_hits     66504727                       # Number of cache demand hits
system.ruby.l1_cntrl4.L1Dcache.demand_misses      1514859                       # Number of cache demand misses
system.ruby.l1_cntrl4.L1Dcache.demand_accesses     68019586                       # Number of cache demand accesses
system.ruby.l1_cntrl4.L1Icache.demand_hits    175730968                       # Number of cache demand hits
system.ruby.l1_cntrl4.L1Icache.demand_misses          228                       # Number of cache demand misses
system.ruby.l1_cntrl4.L1Icache.demand_accesses    175731196                       # Number of cache demand accesses
system.ruby.l1_cntrl5.L1Dcache.demand_hits     66514598                       # Number of cache demand hits
system.ruby.l1_cntrl5.L1Dcache.demand_misses      1533899                       # Number of cache demand misses
system.ruby.l1_cntrl5.L1Dcache.demand_accesses     68048497                       # Number of cache demand accesses
system.ruby.l1_cntrl5.L1Icache.demand_hits    175851591                       # Number of cache demand hits
system.ruby.l1_cntrl5.L1Icache.demand_misses          227                       # Number of cache demand misses
system.ruby.l1_cntrl5.L1Icache.demand_accesses    175851818                       # Number of cache demand accesses
system.ruby.l1_cntrl6.L1Dcache.demand_hits     67064359                       # Number of cache demand hits
system.ruby.l1_cntrl6.L1Dcache.demand_misses      1448157                       # Number of cache demand misses
system.ruby.l1_cntrl6.L1Dcache.demand_accesses     68512516                       # Number of cache demand accesses
system.ruby.l1_cntrl6.L1Icache.demand_hits    176329166                       # Number of cache demand hits
system.ruby.l1_cntrl6.L1Icache.demand_misses          205                       # Number of cache demand misses
system.ruby.l1_cntrl6.L1Icache.demand_accesses    176329371                       # Number of cache demand accesses
system.ruby.l1_cntrl7.L1Dcache.demand_hits     69253773                       # Number of cache demand hits
system.ruby.l1_cntrl7.L1Dcache.demand_misses      1135194                       # Number of cache demand misses
system.ruby.l1_cntrl7.L1Dcache.demand_accesses     70388967                       # Number of cache demand accesses
system.ruby.l1_cntrl7.L1Icache.demand_hits    176175158                       # Number of cache demand hits
system.ruby.l1_cntrl7.L1Icache.demand_misses          214                       # Number of cache demand misses
system.ruby.l1_cntrl7.L1Icache.demand_accesses    176175372                       # Number of cache demand accesses
system.ruby.l1_cntrl0.L1Dcache.demand_hits     72350045                       # Number of cache demand hits
system.ruby.l1_cntrl0.L1Dcache.demand_misses      1556566                       # Number of cache demand misses
system.ruby.l1_cntrl0.L1Dcache.demand_accesses     73906611                       # Number of cache demand accesses
system.ruby.l1_cntrl0.L1Icache.demand_hits    200305443                       # Number of cache demand hits
system.ruby.l1_cntrl0.L1Icache.demand_misses         1138                       # Number of cache demand misses
system.ruby.l1_cntrl0.L1Icache.demand_accesses    200306581                       # Number of cache demand accesses
system.ruby.l1_cntrl1.L1Dcache.demand_hits     68939218                       # Number of cache demand hits
system.ruby.l1_cntrl1.L1Dcache.demand_misses      1041700                       # Number of cache demand misses
system.ruby.l1_cntrl1.L1Dcache.demand_accesses     69980918                       # Number of cache demand accesses
system.ruby.l1_cntrl1.L1Icache.demand_hits    175757589                       # Number of cache demand hits
system.ruby.l1_cntrl1.L1Icache.demand_misses          232                       # Number of cache demand misses
system.ruby.l1_cntrl1.L1Icache.demand_accesses    175757821                       # Number of cache demand accesses
system.ruby.l1_cntrl2.L1Dcache.demand_hits     67206801                       # Number of cache demand hits
system.ruby.l1_cntrl2.L1Dcache.demand_misses      1367699                       # Number of cache demand misses
system.ruby.l1_cntrl2.L1Dcache.demand_accesses     68574500                       # Number of cache demand accesses
system.ruby.l1_cntrl2.L1Icache.demand_hits    175206866                       # Number of cache demand hits
system.ruby.l1_cntrl2.L1Icache.demand_misses          215                       # Number of cache demand misses
system.ruby.l1_cntrl2.L1Icache.demand_accesses    175207081                       # Number of cache demand accesses
system.ruby.l1_cntrl3.L1Dcache.demand_hits     66826374                       # Number of cache demand hits
system.ruby.l1_cntrl3.L1Dcache.demand_misses      1428208                       # Number of cache demand misses
system.ruby.l1_cntrl3.L1Dcache.demand_accesses     68254582                       # Number of cache demand accesses
system.ruby.l1_cntrl3.L1Icache.demand_hits    175578102                       # Number of cache demand hits
system.ruby.l1_cntrl3.L1Icache.demand_misses          205                       # Number of cache demand misses
system.ruby.l1_cntrl3.L1Icache.demand_accesses    175578307                       # Number of cache demand accesses
system.ruby.l2_cntrl1.L2cache.demand_hits      1449733                       # Number of cache demand hits
system.ruby.l2_cntrl1.L2cache.demand_misses       184105                       # Number of cache demand misses
system.ruby.l2_cntrl1.L2cache.demand_accesses      1633838                       # Number of cache demand accesses
system.ruby.l2_cntrl0.L2cache.demand_hits      1745096                       # Number of cache demand hits
system.ruby.l2_cntrl0.L2cache.demand_misses       257893                       # Number of cache demand misses
system.ruby.l2_cntrl0.L2cache.demand_accesses      2002989                       # Number of cache demand accesses
system.ruby.l2_cntrl3.L2cache.demand_hits      1366537                       # Number of cache demand hits
system.ruby.l2_cntrl3.L2cache.demand_misses       195622                       # Number of cache demand misses
system.ruby.l2_cntrl3.L2cache.demand_accesses      1562159                       # Number of cache demand accesses
system.ruby.l2_cntrl2.L2cache.demand_hits      1504606                       # Number of cache demand hits
system.ruby.l2_cntrl2.L2cache.demand_misses       172736                       # Number of cache demand misses
system.ruby.l2_cntrl2.L2cache.demand_accesses      1677342                       # Number of cache demand accesses
system.ruby.l1_cntrl8.L1Dcache.demand_hits     69989051                       # Number of cache demand hits
system.ruby.l1_cntrl8.L1Dcache.demand_misses       939007                       # Number of cache demand misses
system.ruby.l1_cntrl8.L1Dcache.demand_accesses     70928058                       # Number of cache demand accesses
system.ruby.l1_cntrl8.L1Icache.demand_hits    176842563                       # Number of cache demand hits
system.ruby.l1_cntrl8.L1Icache.demand_misses          218                       # Number of cache demand misses
system.ruby.l1_cntrl8.L1Icache.demand_accesses    176842781                       # Number of cache demand accesses
system.ruby.l1_cntrl9.L1Dcache.demand_hits     68461894                       # Number of cache demand hits
system.ruby.l1_cntrl9.L1Dcache.demand_misses      1154786                       # Number of cache demand misses
system.ruby.l1_cntrl9.L1Dcache.demand_accesses     69616680                       # Number of cache demand accesses
system.ruby.l1_cntrl9.L1Icache.demand_hits    176372129                       # Number of cache demand hits
system.ruby.l1_cntrl9.L1Icache.demand_misses          212                       # Number of cache demand misses
system.ruby.l1_cntrl9.L1Icache.demand_accesses    176372341                       # Number of cache demand accesses
system.ruby.l2_cntrl7.L2cache.demand_hits       615504                       # Number of cache demand hits
system.ruby.l2_cntrl7.L2cache.demand_misses        65023                       # Number of cache demand misses
system.ruby.l2_cntrl7.L2cache.demand_accesses       680527                       # Number of cache demand accesses
system.ruby.l2_cntrl6.L2cache.demand_hits      1435488                       # Number of cache demand hits
system.ruby.l2_cntrl6.L2cache.demand_misses       173471                       # Number of cache demand misses
system.ruby.l2_cntrl6.L2cache.demand_accesses      1608959                       # Number of cache demand accesses
system.ruby.l1_cntrl14.L1Dcache.demand_hits     68069045                       # Number of cache demand hits
system.ruby.l1_cntrl14.L1Dcache.demand_misses      1080003                       # Number of cache demand misses
system.ruby.l1_cntrl14.L1Dcache.demand_accesses     69149048                       # Number of cache demand accesses
system.ruby.l1_cntrl14.L1Icache.demand_hits    174395233                       # Number of cache demand hits
system.ruby.l1_cntrl14.L1Icache.demand_misses          218                       # Number of cache demand misses
system.ruby.l1_cntrl14.L1Icache.demand_accesses    174395451                       # Number of cache demand accesses
system.ruby.l1_cntrl15.L1Dcache.demand_hits     68106181                       # Number of cache demand hits
system.ruby.l1_cntrl15.L1Dcache.demand_misses      1005875                       # Number of cache demand misses
system.ruby.l1_cntrl15.L1Dcache.demand_accesses     69112056                       # Number of cache demand accesses
system.ruby.l1_cntrl15.L1Icache.demand_hits    173917946                       # Number of cache demand hits
system.ruby.l1_cntrl15.L1Icache.demand_misses          217                       # Number of cache demand misses
system.ruby.l1_cntrl15.L1Icache.demand_accesses    173918163                       # Number of cache demand accesses
system.ruby.l1_cntrl12.L1Dcache.demand_hits     65663967                       # Number of cache demand hits
system.ruby.l1_cntrl12.L1Dcache.demand_misses      1517627                       # Number of cache demand misses
system.ruby.l1_cntrl12.L1Dcache.demand_accesses     67181594                       # Number of cache demand accesses
system.ruby.l1_cntrl12.L1Icache.demand_hits    174364844                       # Number of cache demand hits
system.ruby.l1_cntrl12.L1Icache.demand_misses          231                       # Number of cache demand misses
system.ruby.l1_cntrl12.L1Icache.demand_accesses    174365075                       # Number of cache demand accesses
system.ruby.l1_cntrl13.L1Dcache.demand_hits     67739426                       # Number of cache demand hits
system.ruby.l1_cntrl13.L1Dcache.demand_misses      1177365                       # Number of cache demand misses
system.ruby.l1_cntrl13.L1Dcache.demand_accesses     68916791                       # Number of cache demand accesses
system.ruby.l1_cntrl13.L1Icache.demand_hits    174300527                       # Number of cache demand hits
system.ruby.l1_cntrl13.L1Icache.demand_misses          222                       # Number of cache demand misses
system.ruby.l1_cntrl13.L1Icache.demand_accesses    174300749                       # Number of cache demand accesses
system.ruby.l1_cntrl10.L1Dcache.demand_hits     66645829                       # Number of cache demand hits
system.ruby.l1_cntrl10.L1Dcache.demand_misses      1446539                       # Number of cache demand misses
system.ruby.l1_cntrl10.L1Dcache.demand_accesses     68092368                       # Number of cache demand accesses
system.ruby.l1_cntrl10.L1Icache.demand_hits    175457699                       # Number of cache demand hits
system.ruby.l1_cntrl10.L1Icache.demand_misses          229                       # Number of cache demand misses
system.ruby.l1_cntrl10.L1Icache.demand_accesses    175457928                       # Number of cache demand accesses
system.ruby.l1_cntrl11.L1Dcache.demand_hits     66433167                       # Number of cache demand hits
system.ruby.l1_cntrl11.L1Dcache.demand_misses      1456921                       # Number of cache demand misses
system.ruby.l1_cntrl11.L1Dcache.demand_accesses     67890088                       # Number of cache demand accesses
system.ruby.l1_cntrl11.L1Icache.demand_hits    175041677                       # Number of cache demand hits
system.ruby.l1_cntrl11.L1Icache.demand_misses          230                       # Number of cache demand misses
system.ruby.l1_cntrl11.L1Icache.demand_accesses    175041907                       # Number of cache demand accesses
system.ruby.l2_cntrl9.L2cache.demand_hits       954475                       # Number of cache demand hits
system.ruby.l2_cntrl9.L2cache.demand_misses       141803                       # Number of cache demand misses
system.ruby.l2_cntrl9.L2cache.demand_accesses      1096278                       # Number of cache demand accesses
system.ruby.l2_cntrl8.L2cache.demand_hits      1230722                       # Number of cache demand hits
system.ruby.l2_cntrl8.L2cache.demand_misses       121229                       # Number of cache demand misses
system.ruby.l2_cntrl8.L2cache.demand_accesses      1351951                       # Number of cache demand accesses
system.ruby.dir_cntrl0.memBuffer.memReq          6521                       # Total number of memory requests
system.ruby.dir_cntrl0.memBuffer.memRead         5297                       # Number of memory reads
system.ruby.dir_cntrl0.memBuffer.memWrite         1224                       # Number of memory writes
system.ruby.dir_cntrl0.memBuffer.memRefresh       114825                       # Number of memory refreshes
system.ruby.dir_cntrl0.memBuffer.memWaitCycles          853                       # Delay stalled at the head of the bank queue
system.ruby.dir_cntrl0.memBuffer.memBankQ            5                       # Delay behind the head of the bank queue
system.ruby.dir_cntrl0.memBuffer.totalStalls          858                       # Total number of stall cycles
system.ruby.dir_cntrl0.memBuffer.stallsPerReq     0.131575                       # Expected number of stall cycles per request
system.ruby.dir_cntrl0.memBuffer.memBankBusy          350                       # memory stalls due to busy bank
system.ruby.dir_cntrl0.memBuffer.memBusBusy          455                       # memory stalls due to busy bus
system.ruby.dir_cntrl0.memBuffer.memReadWriteBusy            2                       # memory stalls due to read write turnaround
system.ruby.dir_cntrl0.memBuffer.memDataBusBusy            1                       # memory stalls due to read read turnaround
system.ruby.dir_cntrl0.memBuffer.memArbWait           45                       # memory stalls due to arbitration
system.ruby.dir_cntrl0.memBuffer.memBankCount |         742     11.38%     11.38% |           0      0.00%     11.38% |           0      0.00%     11.38% |           0      0.00%     11.38% |         596      9.14%     20.52% |           0      0.00%     20.52% |           0      0.00%     20.52% |           0      0.00%     20.52% |         603      9.25%     29.77% |           0      0.00%     29.77% |           0      0.00%     29.77% |           0      0.00%     29.77% |         591      9.06%     38.83% |           0      0.00%     38.83% |           0      0.00%     38.83% |           0      0.00%     38.83% |        1274     19.54%     58.37% |           0      0.00%     58.37% |           0      0.00%     58.37% |           0      0.00%     58.37% |        1221     18.72%     77.09% |           0      0.00%     77.09% |           0      0.00%     77.09% |           0      0.00%     77.09% |         826     12.67%     89.76% |           0      0.00%     89.76% |           0      0.00%     89.76% |           0      0.00%     89.76% |         668     10.24%    100.00% |           0      0.00%    100.00% |           0      0.00%    100.00% |           0      0.00%    100.00% # Number of accesses per bank
system.ruby.dir_cntrl0.memBuffer.memBankCount::total         6521                       # Number of accesses per bank

system.ruby.dir_cntrl1.memBuffer.memReq          5863                       # Total number of memory requests
system.ruby.dir_cntrl1.memBuffer.memRead         4871                       # Number of memory reads
system.ruby.dir_cntrl1.memBuffer.memWrite          992                       # Number of memory writes
system.ruby.dir_cntrl1.memBuffer.memRefresh       109418                       # Number of memory refreshes
system.ruby.dir_cntrl1.memBuffer.memWaitCycles          792                       # Delay stalled at the head of the bank queue
system.ruby.dir_cntrl1.memBuffer.memInputQ            2                       # Delay in the input queue
system.ruby.dir_cntrl1.memBuffer.totalStalls          794                       # Total number of stall cycles
system.ruby.dir_cntrl1.memBuffer.stallsPerReq     0.135426                       # Expected number of stall cycles per request
system.ruby.dir_cntrl1.memBuffer.memBankBusy          348                       # memory stalls due to busy bank
system.ruby.dir_cntrl1.memBuffer.memBusBusy          416                       # memory stalls due to busy bus
system.ruby.dir_cntrl1.memBuffer.memDataBusBusy            4                       # memory stalls due to read read turnaround
system.ruby.dir_cntrl1.memBuffer.memArbWait           24                       # memory stalls due to arbitration
system.ruby.dir_cntrl1.memBuffer.memBankCount |         649     11.07%     11.07% |           0      0.00%     11.07% |           0      0.00%     11.07% |           0      0.00%     11.07% |         560      9.55%     20.62% |           0      0.00%     20.62% |           0      0.00%     20.62% |           0      0.00%     20.62% |         577      9.84%     30.46% |           0      0.00%     30.46% |           0      0.00%     30.46% |           0      0.00%     30.46% |         572      9.76%     40.22% |           0      0.00%     40.22% |           0      0.00%     40.22% |           0      0.00%     40.22% |        1120     19.10%     59.32% |           0      0.00%     59.32% |           0      0.00%     59.32% |           0      0.00%     59.32% |        1046     17.84%     77.16% |           0      0.00%     77.16% |           0      0.00%     77.16% |           0      0.00%     77.16% |         718     12.25%     89.41% |           0      0.00%     89.41% |           0      0.00%     89.41% |           0      0.00%     89.41% |         621     10.59%    100.00% |           0      0.00%    100.00% |           0      0.00%    100.00% |           0      0.00%    100.00% # Number of accesses per bank
system.ruby.dir_cntrl1.memBuffer.memBankCount::total         5863                       # Number of accesses per bank

system.ruby.dir_cntrl2.memBuffer.memReq          6194                       # Total number of memory requests
system.ruby.dir_cntrl2.memBuffer.memRead         5100                       # Number of memory reads
system.ruby.dir_cntrl2.memBuffer.memWrite         1094                       # Number of memory writes
system.ruby.dir_cntrl2.memBuffer.memRefresh       110929                       # Number of memory refreshes
system.ruby.dir_cntrl2.memBuffer.memWaitCycles          773                       # Delay stalled at the head of the bank queue
system.ruby.dir_cntrl2.memBuffer.memInputQ            1                       # Delay in the input queue
system.ruby.dir_cntrl2.memBuffer.totalStalls          774                       # Total number of stall cycles
system.ruby.dir_cntrl2.memBuffer.stallsPerReq     0.124960                       # Expected number of stall cycles per request
system.ruby.dir_cntrl2.memBuffer.memBankBusy          336                       # memory stalls due to busy bank
system.ruby.dir_cntrl2.memBuffer.memBusBusy          414                       # memory stalls due to busy bus
system.ruby.dir_cntrl2.memBuffer.memDataBusBusy            1                       # memory stalls due to read read turnaround
system.ruby.dir_cntrl2.memBuffer.memArbWait           22                       # memory stalls due to arbitration
system.ruby.dir_cntrl2.memBuffer.memBankCount |         686     11.08%     11.08% |           0      0.00%     11.08% |           0      0.00%     11.08% |           0      0.00%     11.08% |         590      9.53%     20.60% |           0      0.00%     20.60% |           0      0.00%     20.60% |           0      0.00%     20.60% |         607      9.80%     30.40% |           0      0.00%     30.40% |           0      0.00%     30.40% |           0      0.00%     30.40% |         582      9.40%     39.80% |           0      0.00%     39.80% |           0      0.00%     39.80% |           0      0.00%     39.80% |        1204     19.44%     59.23% |           0      0.00%     59.23% |           0      0.00%     59.23% |           0      0.00%     59.23% |        1130     18.24%     77.48% |           0      0.00%     77.48% |           0      0.00%     77.48% |           0      0.00%     77.48% |         774     12.50%     89.97% |           0      0.00%     89.97% |           0      0.00%     89.97% |           0      0.00%     89.97% |         621     10.03%    100.00% |           0      0.00%    100.00% |           0      0.00%    100.00% |           0      0.00%    100.00% # Number of accesses per bank
system.ruby.dir_cntrl2.memBuffer.memBankCount::total         6194                       # Number of accesses per bank

system.ruby.dir_cntrl3.memBuffer.memReq          5881                       # Total number of memory requests
system.ruby.dir_cntrl3.memBuffer.memRead         4868                       # Number of memory reads
system.ruby.dir_cntrl3.memBuffer.memWrite         1013                       # Number of memory writes
system.ruby.dir_cntrl3.memBuffer.memRefresh       110621                       # Number of memory refreshes
system.ruby.dir_cntrl3.memBuffer.memWaitCycles          747                       # Delay stalled at the head of the bank queue
system.ruby.dir_cntrl3.memBuffer.totalStalls          747                       # Total number of stall cycles
system.ruby.dir_cntrl3.memBuffer.stallsPerReq     0.127019                       # Expected number of stall cycles per request
system.ruby.dir_cntrl3.memBuffer.memBankBusy          284                       # memory stalls due to busy bank
system.ruby.dir_cntrl3.memBuffer.memBusBusy          435                       # memory stalls due to busy bus
system.ruby.dir_cntrl3.memBuffer.memDataBusBusy            2                       # memory stalls due to read read turnaround
system.ruby.dir_cntrl3.memBuffer.memArbWait           26                       # memory stalls due to arbitration
system.ruby.dir_cntrl3.memBuffer.memBankCount |         627     10.66%     10.66% |           0      0.00%     10.66% |           0      0.00%     10.66% |           0      0.00%     10.66% |         557      9.47%     20.13% |           0      0.00%     20.13% |           0      0.00%     20.13% |           0      0.00%     20.13% |         566      9.62%     29.76% |           0      0.00%     29.76% |           0      0.00%     29.76% |           0      0.00%     29.76% |         554      9.42%     39.18% |           0      0.00%     39.18% |           0      0.00%     39.18% |           0      0.00%     39.18% |        1158     19.69%     58.87% |           0      0.00%     58.87% |           0      0.00%     58.87% |           0      0.00%     58.87% |        1128     19.18%     78.05% |           0      0.00%     78.05% |           0      0.00%     78.05% |           0      0.00%     78.05% |         708     12.04%     90.09% |           0      0.00%     90.09% |           0      0.00%     90.09% |           0      0.00%     90.09% |         583      9.91%    100.00% |           0      0.00%    100.00% |           0      0.00%    100.00% |           0      0.00%    100.00% # Number of accesses per bank
system.ruby.dir_cntrl3.memBuffer.memBankCount::total         5881                       # Number of accesses per bank

system.ruby.dir_cntrl4.memBuffer.memReq          6041                       # Total number of memory requests
system.ruby.dir_cntrl4.memBuffer.memRead         4996                       # Number of memory reads
system.ruby.dir_cntrl4.memBuffer.memWrite         1045                       # Number of memory writes
system.ruby.dir_cntrl4.memBuffer.memRefresh       109181                       # Number of memory refreshes
system.ruby.dir_cntrl4.memBuffer.memWaitCycles          651                       # Delay stalled at the head of the bank queue
system.ruby.dir_cntrl4.memBuffer.totalStalls          651                       # Total number of stall cycles
system.ruby.dir_cntrl4.memBuffer.stallsPerReq     0.107764                       # Expected number of stall cycles per request
system.ruby.dir_cntrl4.memBuffer.memBankBusy          207                       # memory stalls due to busy bank
system.ruby.dir_cntrl4.memBuffer.memBusBusy          412                       # memory stalls due to busy bus
system.ruby.dir_cntrl4.memBuffer.memDataBusBusy            3                       # memory stalls due to read read turnaround
system.ruby.dir_cntrl4.memBuffer.memArbWait           29                       # memory stalls due to arbitration
system.ruby.dir_cntrl4.memBuffer.memBankCount |           0      0.00%      0.00% |         629     10.41%     10.41% |           0      0.00%     10.41% |           0      0.00%     10.41% |           0      0.00%     10.41% |         590      9.77%     20.18% |           0      0.00%     20.18% |           0      0.00%     20.18% |           0      0.00%     20.18% |         584      9.67%     29.85% |           0      0.00%     29.85% |           0      0.00%     29.85% |           0      0.00%     29.85% |         561      9.29%     39.13% |           0      0.00%     39.13% |           0      0.00%     39.13% |           0      0.00%     39.13% |        1255     20.77%     59.91% |           0      0.00%     59.91% |           0      0.00%     59.91% |           0      0.00%     59.91% |        1042     17.25%     77.16% |           0      0.00%     77.16% |           0      0.00%     77.16% |           0      0.00%     77.16% |         726     12.02%     89.17% |           0      0.00%     89.17% |           0      0.00%     89.17% |           0      0.00%     89.17% |         654     10.83%    100.00% |           0      0.00%    100.00% |           0      0.00%    100.00% # Number of accesses per bank
system.ruby.dir_cntrl4.memBuffer.memBankCount::total         6041                       # Number of accesses per bank

system.ruby.dir_cntrl5.memBuffer.memReq          5632                       # Total number of memory requests
system.ruby.dir_cntrl5.memBuffer.memRead         4734                       # Number of memory reads
system.ruby.dir_cntrl5.memBuffer.memWrite          898                       # Number of memory writes
system.ruby.dir_cntrl5.memBuffer.memRefresh       106109                       # Number of memory refreshes
system.ruby.dir_cntrl5.memBuffer.memWaitCycles          678                       # Delay stalled at the head of the bank queue
system.ruby.dir_cntrl5.memBuffer.totalStalls          678                       # Total number of stall cycles
system.ruby.dir_cntrl5.memBuffer.stallsPerReq     0.120384                       # Expected number of stall cycles per request
system.ruby.dir_cntrl5.memBuffer.memBankBusy          194                       # memory stalls due to busy bank
system.ruby.dir_cntrl5.memBuffer.memBusBusy          453                       # memory stalls due to busy bus
system.ruby.dir_cntrl5.memBuffer.memDataBusBusy            2                       # memory stalls due to read read turnaround
system.ruby.dir_cntrl5.memBuffer.memArbWait           29                       # memory stalls due to arbitration
system.ruby.dir_cntrl5.memBuffer.memBankCount |           0      0.00%      0.00% |         588     10.44%     10.44% |           0      0.00%     10.44% |           0      0.00%     10.44% |           0      0.00%     10.44% |         545      9.68%     20.12% |           0      0.00%     20.12% |           0      0.00%     20.12% |           0      0.00%     20.12% |         564     10.01%     30.13% |           0      0.00%     30.13% |           0      0.00%     30.13% |           0      0.00%     30.13% |         546      9.69%     39.83% |           0      0.00%     39.83% |           0      0.00%     39.83% |           0      0.00%     39.83% |        1093     19.41%     59.23% |           0      0.00%     59.23% |           0      0.00%     59.23% |           0      0.00%     59.23% |        1027     18.24%     77.47% |           0      0.00%     77.47% |           0      0.00%     77.47% |           0      0.00%     77.47% |         675     11.99%     89.45% |           0      0.00%     89.45% |           0      0.00%     89.45% |           0      0.00%     89.45% |         594     10.55%    100.00% |           0      0.00%    100.00% |           0      0.00%    100.00% # Number of accesses per bank
system.ruby.dir_cntrl5.memBuffer.memBankCount::total         5632                       # Number of accesses per bank

system.ruby.dir_cntrl6.memBuffer.memReq          6186                       # Total number of memory requests
system.ruby.dir_cntrl6.memBuffer.memRead         5101                       # Number of memory reads
system.ruby.dir_cntrl6.memBuffer.memWrite         1085                       # Number of memory writes
system.ruby.dir_cntrl6.memBuffer.memRefresh       110687                       # Number of memory refreshes
system.ruby.dir_cntrl6.memBuffer.memWaitCycles          825                       # Delay stalled at the head of the bank queue
system.ruby.dir_cntrl6.memBuffer.memInputQ            1                       # Delay in the input queue
system.ruby.dir_cntrl6.memBuffer.totalStalls          826                       # Total number of stall cycles
system.ruby.dir_cntrl6.memBuffer.stallsPerReq     0.133527                       # Expected number of stall cycles per request
system.ruby.dir_cntrl6.memBuffer.memBankBusy          370                       # memory stalls due to busy bank
system.ruby.dir_cntrl6.memBuffer.memBusBusy          426                       # memory stalls due to busy bus
system.ruby.dir_cntrl6.memBuffer.memDataBusBusy            3                       # memory stalls due to read read turnaround
system.ruby.dir_cntrl6.memBuffer.memArbWait           26                       # memory stalls due to arbitration
system.ruby.dir_cntrl6.memBuffer.memBankCount |           0      0.00%      0.00% |         607      9.81%      9.81% |           0      0.00%      9.81% |           0      0.00%      9.81% |           0      0.00%      9.81% |         590      9.54%     19.35% |           0      0.00%     19.35% |           0      0.00%     19.35% |           0      0.00%     19.35% |         595      9.62%     28.97% |           0      0.00%     28.97% |           0      0.00%     28.97% |           0      0.00%     28.97% |         569      9.20%     38.17% |           0      0.00%     38.17% |           0      0.00%     38.17% |           0      0.00%     38.17% |        1109     17.93%     56.09% |           0      0.00%     56.09% |           0      0.00%     56.09% |           0      0.00%     56.09% |        1320     21.34%     77.43% |           0      0.00%     77.43% |           0      0.00%     77.43% |           0      0.00%     77.43% |         767     12.40%     89.83% |           0      0.00%     89.83% |           0      0.00%     89.83% |           0      0.00%     89.83% |         629     10.17%    100.00% |           0      0.00%    100.00% |           0      0.00%    100.00% # Number of accesses per bank
system.ruby.dir_cntrl6.memBuffer.memBankCount::total         6186                       # Number of accesses per bank

system.ruby.dir_cntrl7.memBuffer.memReq          5755                       # Total number of memory requests
system.ruby.dir_cntrl7.memBuffer.memRead         4795                       # Number of memory reads
system.ruby.dir_cntrl7.memBuffer.memWrite          960                       # Number of memory writes
system.ruby.dir_cntrl7.memBuffer.memRefresh       108194                       # Number of memory refreshes
system.ruby.dir_cntrl7.memBuffer.memWaitCycles          721                       # Delay stalled at the head of the bank queue
system.ruby.dir_cntrl7.memBuffer.memInputQ            1                       # Delay in the input queue
system.ruby.dir_cntrl7.memBuffer.totalStalls          722                       # Total number of stall cycles
system.ruby.dir_cntrl7.memBuffer.stallsPerReq     0.125456                       # Expected number of stall cycles per request
system.ruby.dir_cntrl7.memBuffer.memBankBusy          244                       # memory stalls due to busy bank
system.ruby.dir_cntrl7.memBuffer.memBusBusy          448                       # memory stalls due to busy bus
system.ruby.dir_cntrl7.memBuffer.memReadWriteBusy            2                       # memory stalls due to read write turnaround
system.ruby.dir_cntrl7.memBuffer.memArbWait           27                       # memory stalls due to arbitration
system.ruby.dir_cntrl7.memBuffer.memBankCount |           0      0.00%      0.00% |         619     10.76%     10.76% |           0      0.00%     10.76% |           0      0.00%     10.76% |           0      0.00%     10.76% |         563      9.78%     20.54% |           0      0.00%     20.54% |           0      0.00%     20.54% |           0      0.00%     20.54% |         562      9.77%     30.30% |           0      0.00%     30.30% |           0      0.00%     30.30% |           0      0.00%     30.30% |         544      9.45%     39.76% |           0      0.00%     39.76% |           0      0.00%     39.76% |           0      0.00%     39.76% |        1168     20.30%     60.05% |           0      0.00%     60.05% |           0      0.00%     60.05% |           0      0.00%     60.05% |        1036     18.00%     78.05% |           0      0.00%     78.05% |           0      0.00%     78.05% |           0      0.00%     78.05% |         679     11.80%     89.85% |           0      0.00%     89.85% |           0      0.00%     89.85% |           0      0.00%     89.85% |         584     10.15%    100.00% |           0      0.00%    100.00% |           0      0.00%    100.00% # Number of accesses per bank
system.ruby.dir_cntrl7.memBuffer.memBankCount::total         5755                       # Number of accesses per bank

system.ruby.dir_cntrl8.memBuffer.memReq          6296                       # Total number of memory requests
system.ruby.dir_cntrl8.memBuffer.memRead         5162                       # Number of memory reads
system.ruby.dir_cntrl8.memBuffer.memWrite         1134                       # Number of memory writes
system.ruby.dir_cntrl8.memBuffer.memRefresh       113285                       # Number of memory refreshes
system.ruby.dir_cntrl8.memBuffer.memWaitCycles          823                       # Delay stalled at the head of the bank queue
system.ruby.dir_cntrl8.memBuffer.totalStalls          823                       # Total number of stall cycles
system.ruby.dir_cntrl8.memBuffer.stallsPerReq     0.130718                       # Expected number of stall cycles per request
system.ruby.dir_cntrl8.memBuffer.memBankBusy          341                       # memory stalls due to busy bank
system.ruby.dir_cntrl8.memBuffer.memBusBusy          448                       # memory stalls due to busy bus
system.ruby.dir_cntrl8.memBuffer.memDataBusBusy            1                       # memory stalls due to read read turnaround
system.ruby.dir_cntrl8.memBuffer.memArbWait           33                       # memory stalls due to arbitration
system.ruby.dir_cntrl8.memBuffer.memBankCount |           0      0.00%      0.00% |           0      0.00%      0.00% |         660     10.48%     10.48% |           0      0.00%     10.48% |           0      0.00%     10.48% |           0      0.00%     10.48% |         621      9.86%     20.35% |           0      0.00%     20.35% |           0      0.00%     20.35% |           0      0.00%     20.35% |         592      9.40%     29.75% |           0      0.00%     29.75% |           0      0.00%     29.75% |           0      0.00%     29.75% |         583      9.26%     39.01% |           0      0.00%     39.01% |           0      0.00%     39.01% |           0      0.00%     39.01% |        1347     21.39%     60.40% |           0      0.00%     60.40% |           0      0.00%     60.40% |           0      0.00%     60.40% |        1173     18.63%     79.03% |           0      0.00%     79.03% |           0      0.00%     79.03% |           0      0.00%     79.03% |         701     11.13%     90.17% |           0      0.00%     90.17% |           0      0.00%     90.17% |           0      0.00%     90.17% |         619      9.83%    100.00% |           0      0.00%    100.00% # Number of accesses per bank
system.ruby.dir_cntrl8.memBuffer.memBankCount::total         6296                       # Number of accesses per bank

system.ruby.dir_cntrl9.memBuffer.memReq          5712                       # Total number of memory requests
system.ruby.dir_cntrl9.memBuffer.memRead         4775                       # Number of memory reads
system.ruby.dir_cntrl9.memBuffer.memWrite          937                       # Number of memory writes
system.ruby.dir_cntrl9.memBuffer.memRefresh       107913                       # Number of memory refreshes
system.ruby.dir_cntrl9.memBuffer.memWaitCycles          669                       # Delay stalled at the head of the bank queue
system.ruby.dir_cntrl9.memBuffer.totalStalls          669                       # Total number of stall cycles
system.ruby.dir_cntrl9.memBuffer.stallsPerReq     0.117122                       # Expected number of stall cycles per request
system.ruby.dir_cntrl9.memBuffer.memBankBusy          227                       # memory stalls due to busy bank
system.ruby.dir_cntrl9.memBuffer.memBusBusy          419                       # memory stalls due to busy bus
system.ruby.dir_cntrl9.memBuffer.memReadWriteBusy            1                       # memory stalls due to read write turnaround
system.ruby.dir_cntrl9.memBuffer.memArbWait           22                       # memory stalls due to arbitration
system.ruby.dir_cntrl9.memBuffer.memBankCount |           0      0.00%      0.00% |           0      0.00%      0.00% |         597     10.45%     10.45% |           0      0.00%     10.45% |           0      0.00%     10.45% |           0      0.00%     10.45% |         570      9.98%     20.43% |           0      0.00%     20.43% |           0      0.00%     20.43% |           0      0.00%     20.43% |         557      9.75%     30.18% |           0      0.00%     30.18% |           0      0.00%     30.18% |           0      0.00%     30.18% |         530      9.28%     39.46% |           0      0.00%     39.46% |           0      0.00%     39.46% |           0      0.00%     39.46% |        1153     20.19%     59.65% |           0      0.00%     59.65% |           0      0.00%     59.65% |           0      0.00%     59.65% |        1078     18.87%     78.52% |           0      0.00%     78.52% |           0      0.00%     78.52% |           0      0.00%     78.52% |         662     11.59%     90.11% |           0      0.00%     90.11% |           0      0.00%     90.11% |           0      0.00%     90.11% |         565      9.89%    100.00% |           0      0.00%    100.00% # Number of accesses per bank
system.ruby.dir_cntrl9.memBuffer.memBankCount::total         5712                       # Number of accesses per bank

system.ruby.dir_cntrl10.memBuffer.memReq         6064                       # Total number of memory requests
system.ruby.dir_cntrl10.memBuffer.memRead         5042                       # Number of memory reads
system.ruby.dir_cntrl10.memBuffer.memWrite         1022                       # Number of memory writes
system.ruby.dir_cntrl10.memBuffer.memRefresh       110062                       # Number of memory refreshes
system.ruby.dir_cntrl10.memBuffer.memWaitCycles          744                       # Delay stalled at the head of the bank queue
system.ruby.dir_cntrl10.memBuffer.totalStalls          744                       # Total number of stall cycles
system.ruby.dir_cntrl10.memBuffer.stallsPerReq     0.122691                       # Expected number of stall cycles per request
system.ruby.dir_cntrl10.memBuffer.memBankBusy          292                       # memory stalls due to busy bank
system.ruby.dir_cntrl10.memBuffer.memBusBusy          416                       # memory stalls due to busy bus
system.ruby.dir_cntrl10.memBuffer.memReadWriteBusy            2                       # memory stalls due to read write turnaround
system.ruby.dir_cntrl10.memBuffer.memDataBusBusy            5                       # memory stalls due to read read turnaround
system.ruby.dir_cntrl10.memBuffer.memArbWait           29                       # memory stalls due to arbitration
system.ruby.dir_cntrl10.memBuffer.memBankCount |           0      0.00%      0.00% |           0      0.00%      0.00% |         602      9.93%      9.93% |           0      0.00%      9.93% |           0      0.00%      9.93% |           0      0.00%      9.93% |         602      9.93%     19.85% |           0      0.00%     19.85% |           0      0.00%     19.85% |           0      0.00%     19.85% |         580      9.56%     29.42% |           0      0.00%     29.42% |           0      0.00%     29.42% |           0      0.00%     29.42% |         544      8.97%     38.39% |           0      0.00%     38.39% |           0      0.00%     38.39% |           0      0.00%     38.39% |        1393     22.97%     61.36% |           0      0.00%     61.36% |           0      0.00%     61.36% |           0      0.00%     61.36% |        1086     17.91%     79.27% |           0      0.00%     79.27% |           0      0.00%     79.27% |           0      0.00%     79.27% |         671     11.07%     90.34% |           0      0.00%     90.34% |           0      0.00%     90.34% |           0      0.00%     90.34% |         586      9.66%    100.00% |           0      0.00%    100.00% # Number of accesses per bank
system.ruby.dir_cntrl10.memBuffer.memBankCount::total         6064                       # Number of accesses per bank

system.ruby.dir_cntrl11.memBuffer.memReq         5553                       # Total number of memory requests
system.ruby.dir_cntrl11.memBuffer.memRead         4686                       # Number of memory reads
system.ruby.dir_cntrl11.memBuffer.memWrite          867                       # Number of memory writes
system.ruby.dir_cntrl11.memBuffer.memRefresh       105213                       # Number of memory refreshes
system.ruby.dir_cntrl11.memBuffer.memWaitCycles          668                       # Delay stalled at the head of the bank queue
system.ruby.dir_cntrl11.memBuffer.totalStalls          668                       # Total number of stall cycles
system.ruby.dir_cntrl11.memBuffer.stallsPerReq     0.120295                       # Expected number of stall cycles per request
system.ruby.dir_cntrl11.memBuffer.memBankBusy          253                       # memory stalls due to busy bank
system.ruby.dir_cntrl11.memBuffer.memBusBusy          396                       # memory stalls due to busy bus
system.ruby.dir_cntrl11.memBuffer.memReadWriteBusy            2                       # memory stalls due to read write turnaround
system.ruby.dir_cntrl11.memBuffer.memDataBusBusy            1                       # memory stalls due to read read turnaround
system.ruby.dir_cntrl11.memBuffer.memArbWait           16                       # memory stalls due to arbitration
system.ruby.dir_cntrl11.memBuffer.memBankCount |           0      0.00%      0.00% |           0      0.00%      0.00% |         565     10.17%     10.17% |           0      0.00%     10.17% |           0      0.00%     10.17% |           0      0.00%     10.17% |         582     10.48%     20.66% |           0      0.00%     20.66% |           0      0.00%     20.66% |           0      0.00%     20.66% |         545      9.81%     30.47% |           0      0.00%     30.47% |           0      0.00%     30.47% |           0      0.00%     30.47% |         540      9.72%     40.19% |           0      0.00%     40.19% |           0      0.00%     40.19% |           0      0.00%     40.19% |        1138     20.49%     60.69% |           0      0.00%     60.69% |           0      0.00%     60.69% |           0      0.00%     60.69% |         978     17.61%     78.30% |           0      0.00%     78.30% |           0      0.00%     78.30% |           0      0.00%     78.30% |         615     11.08%     89.38% |           0      0.00%     89.38% |           0      0.00%     89.38% |           0      0.00%     89.38% |         590     10.62%    100.00% |           0      0.00%    100.00% # Number of accesses per bank
system.ruby.dir_cntrl11.memBuffer.memBankCount::total         5553                       # Number of accesses per bank

system.ruby.dir_cntrl12.memBuffer.memReq         6325                       # Total number of memory requests
system.ruby.dir_cntrl12.memBuffer.memRead         5200                       # Number of memory reads
system.ruby.dir_cntrl12.memBuffer.memWrite         1125                       # Number of memory writes
system.ruby.dir_cntrl12.memBuffer.memRefresh       115254                       # Number of memory refreshes
system.ruby.dir_cntrl12.memBuffer.memWaitCycles          802                       # Delay stalled at the head of the bank queue
system.ruby.dir_cntrl12.memBuffer.memInputQ            1                       # Delay in the input queue
system.ruby.dir_cntrl12.memBuffer.memBankQ           12                       # Delay behind the head of the bank queue
system.ruby.dir_cntrl12.memBuffer.totalStalls          815                       # Total number of stall cycles
system.ruby.dir_cntrl12.memBuffer.stallsPerReq     0.128854                       # Expected number of stall cycles per request
system.ruby.dir_cntrl12.memBuffer.memBankBusy          325                       # memory stalls due to busy bank
system.ruby.dir_cntrl12.memBuffer.memBusBusy          446                       # memory stalls due to busy bus
system.ruby.dir_cntrl12.memBuffer.memReadWriteBusy            2                       # memory stalls due to read write turnaround
system.ruby.dir_cntrl12.memBuffer.memDataBusBusy            2                       # memory stalls due to read read turnaround
system.ruby.dir_cntrl12.memBuffer.memArbWait           27                       # memory stalls due to arbitration
system.ruby.dir_cntrl12.memBuffer.memBankCount |           0      0.00%      0.00% |           0      0.00%      0.00% |           0      0.00%      0.00% |         602      9.52%      9.52% |           0      0.00%      9.52% |           0      0.00%      9.52% |           0      0.00%      9.52% |         584      9.23%     18.75% |           0      0.00%     18.75% |           0      0.00%     18.75% |           0      0.00%     18.75% |         556      8.79%     27.54% |           0      0.00%     27.54% |           0      0.00%     27.54% |           0      0.00%     27.54% |         569      9.00%     36.54% |           0      0.00%     36.54% |           0      0.00%     36.54% |           0      0.00%     36.54% |        1257     19.87%     56.41% |           0      0.00%     56.41% |           0      0.00%     56.41% |           0      0.00%     56.41% |        1417     22.40%     78.81% |           0      0.00%     78.81% |           0      0.00%     78.81% |           0      0.00%     78.81% |         715     11.30%     90.12% |           0      0.00%     90.12% |           0      0.00%     90.12% |           0      0.00%     90.12% |         625      9.88%    100.00% # Number of accesses per bank
system.ruby.dir_cntrl12.memBuffer.memBankCount::total         6325                       # Number of accesses per bank

system.ruby.dir_cntrl13.memBuffer.memReq         5667                       # Total number of memory requests
system.ruby.dir_cntrl13.memBuffer.memRead         4749                       # Number of memory reads
system.ruby.dir_cntrl13.memBuffer.memWrite          918                       # Number of memory writes
system.ruby.dir_cntrl13.memBuffer.memRefresh       107049                       # Number of memory refreshes
system.ruby.dir_cntrl13.memBuffer.memWaitCycles          666                       # Delay stalled at the head of the bank queue
system.ruby.dir_cntrl13.memBuffer.totalStalls          666                       # Total number of stall cycles
system.ruby.dir_cntrl13.memBuffer.stallsPerReq     0.117522                       # Expected number of stall cycles per request
system.ruby.dir_cntrl13.memBuffer.memBankBusy          220                       # memory stalls due to busy bank
system.ruby.dir_cntrl13.memBuffer.memBusBusy          421                       # memory stalls due to busy bus
system.ruby.dir_cntrl13.memBuffer.memDataBusBusy            2                       # memory stalls due to read read turnaround
system.ruby.dir_cntrl13.memBuffer.memArbWait           23                       # memory stalls due to arbitration
system.ruby.dir_cntrl13.memBuffer.memBankCount |           0      0.00%      0.00% |           0      0.00%      0.00% |           0      0.00%      0.00% |         570     10.06%     10.06% |           0      0.00%     10.06% |           0      0.00%     10.06% |           0      0.00%     10.06% |         587     10.36%     20.42% |           0      0.00%     20.42% |           0      0.00%     20.42% |           0      0.00%     20.42% |         550      9.71%     30.12% |           0      0.00%     30.12% |           0      0.00%     30.12% |           0      0.00%     30.12% |         546      9.63%     39.76% |           0      0.00%     39.76% |           0      0.00%     39.76% |           0      0.00%     39.76% |        1120     19.76%     59.52% |           0      0.00%     59.52% |           0      0.00%     59.52% |           0      0.00%     59.52% |        1118     19.73%     79.25% |           0      0.00%     79.25% |           0      0.00%     79.25% |           0      0.00%     79.25% |         605     10.68%     89.92% |           0      0.00%     89.92% |           0      0.00%     89.92% |           0      0.00%     89.92% |         571     10.08%    100.00% # Number of accesses per bank
system.ruby.dir_cntrl13.memBuffer.memBankCount::total         5667                       # Number of accesses per bank

system.ruby.dir_cntrl14.memBuffer.memReq         5898                       # Total number of memory requests
system.ruby.dir_cntrl14.memBuffer.memRead         4924                       # Number of memory reads
system.ruby.dir_cntrl14.memBuffer.memWrite          974                       # Number of memory writes
system.ruby.dir_cntrl14.memBuffer.memRefresh       107625                       # Number of memory refreshes
system.ruby.dir_cntrl14.memBuffer.memWaitCycles          747                       # Delay stalled at the head of the bank queue
system.ruby.dir_cntrl14.memBuffer.memInputQ            1                       # Delay in the input queue
system.ruby.dir_cntrl14.memBuffer.totalStalls          748                       # Total number of stall cycles
system.ruby.dir_cntrl14.memBuffer.stallsPerReq     0.126823                       # Expected number of stall cycles per request
system.ruby.dir_cntrl14.memBuffer.memBankBusy          292                       # memory stalls due to busy bank
system.ruby.dir_cntrl14.memBuffer.memBusBusy          420                       # memory stalls due to busy bus
system.ruby.dir_cntrl14.memBuffer.memDataBusBusy            1                       # memory stalls due to read read turnaround
system.ruby.dir_cntrl14.memBuffer.memArbWait           34                       # memory stalls due to arbitration
system.ruby.dir_cntrl14.memBuffer.memBankCount |           0      0.00%      0.00% |           0      0.00%      0.00% |           0      0.00%      0.00% |         602     10.21%     10.21% |           0      0.00%     10.21% |           0      0.00%     10.21% |           0      0.00%     10.21% |         595     10.09%     20.30% |           0      0.00%     20.30% |           0      0.00%     20.30% |           0      0.00%     20.30% |         601     10.19%     30.48% |           0      0.00%     30.48% |           0      0.00%     30.48% |           0      0.00%     30.48% |         558      9.46%     39.95% |           0      0.00%     39.95% |           0      0.00%     39.95% |           0      0.00%     39.95% |        1183     20.06%     60.00% |           0      0.00%     60.00% |           0      0.00%     60.00% |           0      0.00%     60.00% |        1069     18.12%     78.13% |           0      0.00%     78.13% |           0      0.00%     78.13% |           0      0.00%     78.13% |         661     11.21%     89.34% |           0      0.00%     89.34% |           0      0.00%     89.34% |           0      0.00%     89.34% |         629     10.66%    100.00% # Number of accesses per bank
system.ruby.dir_cntrl14.memBuffer.memBankCount::total         5898                       # Number of accesses per bank

system.ruby.dir_cntrl15.memBuffer.memReq         5392                       # Total number of memory requests
system.ruby.dir_cntrl15.memBuffer.memRead         4616                       # Number of memory reads
system.ruby.dir_cntrl15.memBuffer.memWrite          776                       # Number of memory writes
system.ruby.dir_cntrl15.memBuffer.memRefresh       101843                       # Number of memory refreshes
system.ruby.dir_cntrl15.memBuffer.memWaitCycles          662                       # Delay stalled at the head of the bank queue
system.ruby.dir_cntrl15.memBuffer.totalStalls          662                       # Total number of stall cycles
system.ruby.dir_cntrl15.memBuffer.stallsPerReq     0.122774                       # Expected number of stall cycles per request
system.ruby.dir_cntrl15.memBuffer.memBankBusy          219                       # memory stalls due to busy bank
system.ruby.dir_cntrl15.memBuffer.memBusBusy          415                       # memory stalls due to busy bus
system.ruby.dir_cntrl15.memBuffer.memDataBusBusy            4                       # memory stalls due to read read turnaround
system.ruby.dir_cntrl15.memBuffer.memArbWait           24                       # memory stalls due to arbitration
system.ruby.dir_cntrl15.memBuffer.memBankCount |           0      0.00%      0.00% |           0      0.00%      0.00% |           0      0.00%      0.00% |         593     11.00%     11.00% |           0      0.00%     11.00% |           0      0.00%     11.00% |           0      0.00%     11.00% |         538      9.98%     20.98% |           0      0.00%     20.98% |           0      0.00%     20.98% |           0      0.00%     20.98% |         556     10.31%     31.29% |           0      0.00%     31.29% |           0      0.00%     31.29% |           0      0.00%     31.29% |         621     11.52%     42.80% |           0      0.00%     42.80% |           0      0.00%     42.80% |           0      0.00%     42.80% |        1076     19.96%     62.76% |           0      0.00%     62.76% |           0      0.00%     62.76% |           0      0.00%     62.76% |         797     14.78%     77.54% |           0      0.00%     77.54% |           0      0.00%     77.54% |           0      0.00%     77.54% |         627     11.63%     89.17% |           0      0.00%     89.17% |           0      0.00%     89.17% |           0      0.00%     89.17% |         584     10.83%    100.00% # Number of accesses per bank
system.ruby.dir_cntrl15.memBuffer.memBankCount::total         5392                       # Number of accesses per bank

system.cpu00.workload.num_syscalls                152                       # Number of system calls
system.cpu00.numCycles                     2316792462                       # number of cpu cycles simulated
system.cpu00.numWorkItemsStarted                    0                       # number of work items this cpu started
system.cpu00.numWorkItemsCompleted                  0                       # number of work items this cpu completed
system.cpu00.committedInsts                 140466555                       # Number of instructions committed
system.cpu00.committedOps                   220371410                       # Number of ops (including micro ops) committed
system.cpu00.num_int_alu_accesses           187118749                       # Number of integer alu accesses
system.cpu00.num_fp_alu_accesses             76752868                       # Number of float alu accesses
system.cpu00.num_func_calls                   2712770                       # number of times a function call or return occured
system.cpu00.num_conditional_control_insts      7956294                       # number of instructions that are conditional controls
system.cpu00.num_int_insts                  187118749                       # number of integer instructions
system.cpu00.num_fp_insts                    76752868                       # number of float instructions
system.cpu00.num_int_register_reads         479977338                       # number of times the integer registers were read
system.cpu00.num_int_register_writes        149810154                       # number of times the integer registers were written
system.cpu00.num_fp_register_reads          111757780                       # number of times the floating registers were read
system.cpu00.num_fp_register_writes          59969675                       # number of times the floating registers were written
system.cpu00.num_mem_refs                    73906610                       # number of memory refs
system.cpu00.num_load_insts                  43865759                       # Number of load instructions
system.cpu00.num_store_insts                 30040851                       # Number of store instructions
system.cpu00.num_idle_cycles                        0                       # Number of idle cycles
system.cpu00.num_busy_cycles               2316792462                       # Number of busy cycles
system.cpu00.not_idle_fraction                      1                       # Percentage of non-idle cycles
system.cpu00.idle_fraction                          0                       # Percentage of idle cycles
system.cpu01.numCycles                     2316507628                       # number of cpu cycles simulated
system.cpu01.numWorkItemsStarted                    0                       # number of work items this cpu started
system.cpu01.numWorkItemsCompleted                  0                       # number of work items this cpu completed
system.cpu01.committedInsts                 126027377                       # Number of instructions committed
system.cpu01.committedOps                   193549957                       # Number of ops (including micro ops) committed
system.cpu01.num_int_alu_accesses           170710370                       # Number of integer alu accesses
system.cpu01.num_fp_alu_accesses             59039258                       # Number of float alu accesses
system.cpu01.num_func_calls                   1801772                       # number of times a function call or return occured
system.cpu01.num_conditional_control_insts      9159895                       # number of instructions that are conditional controls
system.cpu01.num_int_insts                  170710370                       # number of integer instructions
system.cpu01.num_fp_insts                    59039258                       # number of float instructions
system.cpu01.num_int_register_reads         451172383                       # number of times the integer registers were read
system.cpu01.num_int_register_writes        137121157                       # number of times the integer registers were written
system.cpu01.num_fp_register_reads           81783297                       # number of times the floating registers were read
system.cpu01.num_fp_register_writes          44936069                       # number of times the floating registers were written
system.cpu01.num_mem_refs                    69980918                       # number of memory refs
system.cpu01.num_load_insts                  42070607                       # Number of load instructions
system.cpu01.num_store_insts                 27910311                       # Number of store instructions
system.cpu01.num_idle_cycles             282175986.102699                       # Number of idle cycles
system.cpu01.num_busy_cycles             2034331641.897301                       # Number of busy cycles
system.cpu01.not_idle_fraction               0.878189                       # Percentage of non-idle cycles
system.cpu01.idle_fraction                   0.121811                       # Percentage of idle cycles
system.cpu02.numCycles                     2316505614                       # number of cpu cycles simulated
system.cpu02.numWorkItemsStarted                    0                       # number of work items this cpu started
system.cpu02.numWorkItemsCompleted                  0                       # number of work items this cpu completed
system.cpu02.committedInsts                 124421907                       # Number of instructions committed
system.cpu02.committedOps                   192382744                       # Number of ops (including micro ops) committed
system.cpu02.num_int_alu_accesses           168420497                       # Number of integer alu accesses
system.cpu02.num_fp_alu_accesses             61898646                       # Number of float alu accesses
system.cpu02.num_func_calls                   1921586                       # number of times a function call or return occured
system.cpu02.num_conditional_control_insts      7879701                       # number of instructions that are conditional controls
system.cpu02.num_int_insts                  168420497                       # number of integer instructions
system.cpu02.num_fp_insts                    61898646                       # number of float instructions
system.cpu02.num_int_register_reads         440803646                       # number of times the integer registers were read
system.cpu02.num_int_register_writes        133016778                       # number of times the integer registers were written
system.cpu02.num_fp_register_reads           85780261                       # number of times the floating registers were read
system.cpu02.num_fp_register_writes          47122591                       # number of times the floating registers were written
system.cpu02.num_mem_refs                    68574500                       # number of memory refs
system.cpu02.num_load_insts                  40755281                       # Number of load instructions
system.cpu02.num_store_insts                 27819219                       # Number of store instructions
system.cpu02.num_idle_cycles             282179332.330719                       # Number of idle cycles
system.cpu02.num_busy_cycles             2034326281.669281                       # Number of busy cycles
system.cpu02.not_idle_fraction               0.878188                       # Percentage of non-idle cycles
system.cpu02.idle_fraction                   0.121812                       # Percentage of idle cycles
system.cpu03.numCycles                     2316505988                       # number of cpu cycles simulated
system.cpu03.numWorkItemsStarted                    0                       # number of work items this cpu started
system.cpu03.numWorkItemsCompleted                  0                       # number of work items this cpu completed
system.cpu03.committedInsts                 124181344                       # Number of instructions committed
system.cpu03.committedOps                   192597161                       # Number of ops (including micro ops) committed
system.cpu03.num_int_alu_accesses           168052313                       # Number of integer alu accesses
system.cpu03.num_fp_alu_accesses             63381777                       # Number of float alu accesses
system.cpu03.num_func_calls                   1979814                       # number of times a function call or return occured
system.cpu03.num_conditional_control_insts      7367712                       # number of instructions that are conditional controls
system.cpu03.num_int_insts                  168052313                       # number of integer instructions
system.cpu03.num_fp_insts                    63381777                       # number of float instructions
system.cpu03.num_int_register_reads         437914828                       # number of times the integer registers were read
system.cpu03.num_int_register_writes        131758047                       # number of times the integer registers were written
system.cpu03.num_fp_register_reads           87846604                       # number of times the floating registers were read
system.cpu03.num_fp_register_writes          48255081                       # number of times the floating registers were written
system.cpu03.num_mem_refs                    68254582                       # number of memory refs
system.cpu03.num_load_insts                  40373324                       # Number of load instructions
system.cpu03.num_store_insts                 27881258                       # Number of store instructions
system.cpu03.num_idle_cycles             282180401.761974                       # Number of idle cycles
system.cpu03.num_busy_cycles             2034325586.238026                       # Number of busy cycles
system.cpu03.not_idle_fraction               0.878187                       # Percentage of non-idle cycles
system.cpu03.idle_fraction                   0.121813                       # Percentage of idle cycles
system.cpu04.numCycles                     2316504930                       # number of cpu cycles simulated
system.cpu04.numWorkItemsStarted                    0                       # number of work items this cpu started
system.cpu04.numWorkItemsCompleted                  0                       # number of work items this cpu completed
system.cpu04.committedInsts                 123921800                       # Number of instructions committed
system.cpu04.committedOps                   192433084                       # Number of ops (including micro ops) committed
system.cpu04.num_int_alu_accesses           167434794                       # Number of integer alu accesses
system.cpu04.num_fp_alu_accesses             64555510                       # Number of float alu accesses
system.cpu04.num_func_calls                   2010122                       # number of times a function call or return occured
system.cpu04.num_conditional_control_insts      6987530                       # number of instructions that are conditional controls
system.cpu04.num_int_insts                  167434794                       # number of integer instructions
system.cpu04.num_fp_insts                    64555510                       # number of float instructions
system.cpu04.num_int_register_reads         434983326                       # number of times the integer registers were read
system.cpu04.num_int_register_writes        130410666                       # number of times the integer registers were written
system.cpu04.num_fp_register_reads           89476876                       # number of times the floating registers were read
system.cpu04.num_fp_register_writes          49149733                       # number of times the floating registers were written
system.cpu04.num_mem_refs                    68019586                       # number of memory refs
system.cpu04.num_load_insts                  40114286                       # Number of load instructions
system.cpu04.num_store_insts                 27905300                       # Number of store instructions
system.cpu04.num_idle_cycles             282182728.579076                       # Number of idle cycles
system.cpu04.num_busy_cycles             2034322201.420924                       # Number of busy cycles
system.cpu04.not_idle_fraction               0.878186                       # Percentage of non-idle cycles
system.cpu04.idle_fraction                   0.121814                       # Percentage of idle cycles
system.cpu05.numCycles                     2316505742                       # number of cpu cycles simulated
system.cpu05.numWorkItemsStarted                    0                       # number of work items this cpu started
system.cpu05.numWorkItemsCompleted                  0                       # number of work items this cpu completed
system.cpu05.committedInsts                 124049093                       # Number of instructions committed
system.cpu05.committedOps                   192610184                       # Number of ops (including micro ops) committed
system.cpu05.num_int_alu_accesses           167682538                       # Number of integer alu accesses
system.cpu05.num_fp_alu_accesses             64371734                       # Number of float alu accesses
system.cpu05.num_func_calls                   2009368                       # number of times a function call or return occured
system.cpu05.num_conditional_control_insts      7050770                       # number of instructions that are conditional controls
system.cpu05.num_int_insts                  167682538                       # number of integer instructions
system.cpu05.num_fp_insts                    64371734                       # number of float instructions
system.cpu05.num_int_register_reads         435832599                       # number of times the integer registers were read
system.cpu05.num_int_register_writes        130771171                       # number of times the integer registers were written
system.cpu05.num_fp_register_reads           89225406                       # number of times the floating registers were read
system.cpu05.num_fp_register_writes          49009897                       # number of times the floating registers were written
system.cpu05.num_mem_refs                    68048497                       # number of memory refs
system.cpu05.num_load_insts                  40141261                       # Number of load instructions
system.cpu05.num_store_insts                 27907236                       # Number of store instructions
system.cpu05.num_idle_cycles             282183413.419522                       # Number of idle cycles
system.cpu05.num_busy_cycles             2034322328.580478                       # Number of busy cycles
system.cpu05.not_idle_fraction               0.878186                       # Percentage of non-idle cycles
system.cpu05.idle_fraction                   0.121814                       # Percentage of idle cycles
system.cpu06.numCycles                     2316505264                       # number of cpu cycles simulated
system.cpu06.numWorkItemsStarted                    0                       # number of work items this cpu started
system.cpu06.numWorkItemsCompleted                  0                       # number of work items this cpu completed
system.cpu06.committedInsts                 124661791                       # Number of instructions committed
system.cpu06.committedOps                   193313968                       # Number of ops (including micro ops) committed
system.cpu06.num_int_alu_accesses           168583333                       # Number of integer alu accesses
system.cpu06.num_fp_alu_accesses             63870150                       # Number of float alu accesses
system.cpu06.num_func_calls                   1987780                       # number of times a function call or return occured
system.cpu06.num_conditional_control_insts      7348077                       # number of instructions that are conditional controls
system.cpu06.num_int_insts                  168583333                       # number of integer instructions
system.cpu06.num_fp_insts                    63870150                       # number of float instructions
system.cpu06.num_int_register_reads         439144354                       # number of times the integer registers were read
system.cpu06.num_int_register_writes        131999091                       # number of times the integer registers were written
system.cpu06.num_fp_register_reads           88523612                       # number of times the floating registers were read
system.cpu06.num_fp_register_writes          48626239                       # number of times the floating registers were written
system.cpu06.num_mem_refs                    68512516                       # number of memory refs
system.cpu06.num_load_insts                  40520410                       # Number of load instructions
system.cpu06.num_store_insts                 27992106                       # Number of store instructions
system.cpu06.num_idle_cycles             282185254.956778                       # Number of idle cycles
system.cpu06.num_busy_cycles             2034320009.043222                       # Number of busy cycles
system.cpu06.not_idle_fraction               0.878185                       # Percentage of non-idle cycles
system.cpu06.idle_fraction                   0.121815                       # Percentage of idle cycles
system.cpu07.numCycles                     2316505436                       # number of cpu cycles simulated
system.cpu07.numWorkItemsStarted                    0                       # number of work items this cpu started
system.cpu07.numWorkItemsCompleted                  0                       # number of work items this cpu completed
system.cpu07.committedInsts                 126568765                       # Number of instructions committed
system.cpu07.committedOps                   194371762                       # Number of ops (including micro ops) committed
system.cpu07.num_int_alu_accesses           171731811                       # Number of integer alu accesses
system.cpu07.num_fp_alu_accesses             58526816                       # Number of float alu accesses
system.cpu07.num_func_calls                   1780904                       # number of times a function call or return occured
system.cpu07.num_conditional_control_insts      9466244                       # number of instructions that are conditional controls
system.cpu07.num_int_insts                  171731811                       # number of integer instructions
system.cpu07.num_fp_insts                    58526816                       # number of float instructions
system.cpu07.num_int_register_reads         454859745                       # number of times the integer registers were read
system.cpu07.num_int_register_writes        138479508                       # number of times the integer registers were written
system.cpu07.num_fp_register_reads           81077368                       # number of times the floating registers were read
[...]
system.ruby.l2_cntrl0.OLSI.Writeback_Ack::total            5                      

system.ruby.dir_cntrl0.GETX              |        4220      6.42%      6.42% |        4167      6.34%     12.76% |        4145      6.30%     19.06% |        4163      6.33%     25.39% |        4151      6.31%     31.71% |        4078      6.20%     37.91% |        4135      6.29%     44.20% |        4119      6.27%     50.47% |        4130      6.28%     56.75% |        4076      6.20%     62.95% |        4100      6.24%     69.18% |        4057      6.17%     75.35% |        4048      6.16%     81.51% |        4071      6.19%     87.70% |        4039      6.14%     93.85% |        4045      6.15%    100.00%
system.ruby.dir_cntrl0.GETX::total              65744                      

system.ruby.dir_cntrl0.GETS              |        1077      8.18%      8.18% |         704      5.34%     13.52% |         955      7.25%     20.77% |         705      5.35%     26.12% |         845      6.42%     32.54% |         656      4.98%     37.52% |         966      7.33%     44.85% |         676      5.13%     49.98% |        1032      7.83%     57.82% |         699      5.31%     63.13% |         942      7.15%     70.28% |         629      4.78%     75.05% |        1152      8.75%     83.80% |         678      5.15%     88.95% |         885      6.72%     95.67% |         571      4.33%    100.00%
system.ruby.dir_cntrl0.GETS::total              13172                      

system.ruby.dir_cntrl0.PUTX              |        1520      7.97%      7.97% |        1096      5.75%     13.72% |        1339      7.02%     20.74% |        1111      5.83%     26.57% |        1258      6.60%     33.16% |         995      5.22%     38.38% |        1360      7.13%     45.51% |        1059      5.55%     51.06% |        1428      7.49%     58.55% |        1045      5.48%     64.03% |        1326      6.95%     70.99% |         965      5.06%     76.05% |        1474      7.73%     83.78% |        1028      5.39%     89.17% |        1203      6.31%     95.47% |         863      4.53%    100.00%
system.ruby.dir_cntrl0.PUTX::total              19070                      

system.ruby.dir_cntrl0.PUTO_SHARERS      |           0      0.00%      0.00% |           0      0.00%      0.00% |           0      0.00%      0.00% |           0      0.00%      0.00% |           0      0.00%      0.00% |           0      0.00%      0.00% |           0      0.00%      0.00% |           1     20.00%     20.00% |           1     20.00%     40.00% |           0      0.00%     40.00% |           0      0.00%     40.00% |           0      0.00%     40.00% |           1     20.00%     60.00% |           2     40.00%    100.00% |           0      0.00%    100.00% |           0      0.00%    100.00%
system.ruby.dir_cntrl0.PUTO_SHARERS::total            5                      

system.ruby.dir_cntrl0.Last_Unblock      |           0      0.00%      0.00% |           0      0.00%      0.00% |           0      0.00%      0.00% |           0      0.00%      0.00% |           0      0.00%      0.00% |           0      0.00%      0.00% |           0      0.00%      0.00% |           1     16.67%     16.67% |           2     33.33%     50.00% |           0      0.00%     50.00% |           0      0.00%     50.00% |           0      0.00%     50.00% |           3     50.00%    100.00% |           0      0.00%    100.00% |           0      0.00%    100.00% |           0      0.00%    100.00%
system.ruby.dir_cntrl0.Last_Unblock::total            6                      

system.ruby.dir_cntrl0.Exclusive_Unblock |        5297      6.71%      6.71% |        4871      6.17%     12.89% |        5100      6.46%     19.35% |        4868      6.17%     25.52% |        4996      6.33%     31.85% |        4734      6.00%     37.85% |        5101      6.46%     44.31% |        4794      6.08%     50.39% |        5160      6.54%     56.93% |        4775      6.05%     62.98% |        5042      6.39%     69.37% |        4686      5.94%     75.31% |        5197      6.59%     81.89% |        4749      6.02%     87.91% |        4924      6.24%     94.15% |        4616      5.85%    100.00%
system.ruby.dir_cntrl0.Exclusive_Unblock::total        78910                      

system.ruby.dir_cntrl0.Clean_Writeback   |         296      9.83%      9.83% |         104      3.45%     13.28% |         245      8.14%     21.42% |          98      3.25%     24.68% |         213      7.07%     31.75% |          97      3.22%     34.97% |         275      9.13%     44.10% |         100      3.32%     47.43% |         295      9.80%     57.22% |         108      3.59%     60.81% |         304     10.10%     70.91% |          98      3.25%     74.16% |         350     11.62%     85.79% |         112      3.72%     89.51% |         229      7.61%     97.11% |          87      2.89%    100.00%
system.ruby.dir_cntrl0.Clean_Writeback::total         3011                      

system.ruby.dir_cntrl0.Dirty_Writeback   |        1224      7.62%      7.62% |         992      6.18%     13.79% |        1094      6.81%     20.61% |        1013      6.31%     26.91% |        1045      6.51%     33.42% |         898      5.59%     39.01% |        1085      6.75%     45.76% |         960      5.98%     51.74% |        1134      7.06%     58.80% |         937      5.83%     64.63% |        1022      6.36%     70.99% |         867      5.40%     76.39% |        1125      7.00%     83.39% |         918      5.71%     89.11% |         974      6.06%     95.17% |         776      4.83%    100.00%
system.ruby.dir_cntrl0.Dirty_Writeback::total        16064                      

system.ruby.dir_cntrl0.Memory_Data       |        5297      6.71%      6.71% |        4871      6.17%     12.88% |        5100      6.46%     19.35% |        4868      6.17%     25.52% |        4996      6.33%     31.85% |        4734      6.00%     37.85% |        5101      6.46%     44.31% |        4795      6.08%     50.39% |        5162      6.54%     56.93% |        4775      6.05%     62.98% |        5042      6.39%     69.37% |        4686      5.94%     75.30% |        5200      6.59%     81.89% |        4749      6.02%     87.91% |        4924      6.24%     94.15% |        4616      5.85%    100.00%
system.ruby.dir_cntrl0.Memory_Data::total        78916                      

system.ruby.dir_cntrl0.Memory_Ack        |        1224      7.62%      7.62% |         992      6.18%     13.79% |        1094      6.81%     20.61% |        1013      6.31%     26.91% |        1045      6.51%     33.42% |         898      5.59%     39.01% |        1085      6.75%     45.76% |         960      5.98%     51.74% |        1134      7.06%     58.80% |         937      5.83%     64.63% |        1022      6.36%     70.99% |         867      5.40%     76.39% |        1125      7.00%     83.39% |         918      5.71%     89.11% |         974      6.06%     95.17% |         776      4.83%    100.00%
system.ruby.dir_cntrl0.Memory_Ack::total        16064                      

system.ruby.dir_cntrl0.I.GETX            |        4220      6.42%      6.42% |        4167      6.34%     12.76% |        4145      6.30%     19.06% |        4163      6.33%     25.39% |        4151      6.31%     31.71% |        4078      6.20%     37.91% |        4135      6.29%     44.20% |        4119      6.27%     50.47% |        4130      6.28%     56.75% |        4076      6.20%     62.95% |        4100      6.24%     69.18% |        4057      6.17%     75.36% |        4048      6.16%     81.51% |        4070      6.19%     87.70% |        4039      6.14%     93.85% |        4045      6.15%    100.00%
system.ruby.dir_cntrl0.I.GETX::total            65743                      

system.ruby.dir_cntrl0.I.GETS            |        1077      8.18%      8.18% |         704      5.35%     13.53% |         955      7.25%     20.78% |         705      5.35%     26.14% |         845      6.42%     32.55% |         656      4.98%     37.54% |         966      7.34%     44.87% |         675      5.13%     50.00% |        1030      7.82%     57.82% |         699      5.31%     63.13% |         942      7.15%     70.29% |         629      4.78%     75.06% |        1149      8.73%     83.79% |         678      5.15%     88.94% |         885      6.72%     95.66% |         571      4.34%    100.00%
system.ruby.dir_cntrl0.I.GETS::total            13166                      

system.ruby.dir_cntrl0.I.Memory_Ack      |        1224      7.62%      7.62% |         992      6.18%     13.80% |        1094      6.81%     20.61% |        1013      6.31%     26.91% |        1045      6.51%     33.42% |         898      5.59%     39.01% |        1085      6.76%     45.77% |         960      5.98%     51.74% |        1134      7.06%     58.80% |         937      5.83%     64.64% |        1022      6.36%     71.00% |         867      5.40%     76.40% |        1125      7.00%     83.40% |         916      5.70%     89.10% |         974      6.06%     95.17% |         776      4.83%    100.00%
system.ruby.dir_cntrl0.I.Memory_Ack::total        16062                      

system.ruby.dir_cntrl0.S.GETX            |           0      0.00%      0.00% |           0      0.00%      0.00% |           0      0.00%      0.00% |           0      0.00%      0.00% |           0      0.00%      0.00% |           0      0.00%      0.00% |           0      0.00%      0.00% |           0      0.00%      0.00% |           0      0.00%      0.00% |           0      0.00%      0.00% |           0      0.00%      0.00% |           0      0.00%      0.00% |           0      0.00%      0.00% |           1    100.00%    100.00% |           0      0.00%    100.00% |           0      0.00%    100.00%
system.ruby.dir_cntrl0.S.GETX::total                1                      

system.ruby.dir_cntrl0.S.GETS            |           0      0.00%      0.00% |           0      0.00%      0.00% |           0      0.00%      0.00% |           0      0.00%      0.00% |           0      0.00%      0.00% |           0      0.00%      0.00% |           0      0.00%      0.00% |           1     16.67%     16.67% |           2     33.33%     50.00% |           0      0.00%     50.00% |           0      0.00%     50.00% |           0      0.00%     50.00% |           3     50.00%    100.00% |           0      0.00%    100.00% |           0      0.00%    100.00% |           0      0.00%    100.00%
system.ruby.dir_cntrl0.S.GETS::total                6                      

system.ruby.dir_cntrl0.S.Memory_Ack      |           0      0.00%      0.00% |           0      0.00%      0.00% |           0      0.00%      0.00% |           0      0.00%      0.00% |           0      0.00%      0.00% |           0      0.00%      0.00% |           0      0.00%      0.00% |           0      0.00%      0.00% |           0      0.00%      0.00% |           0      0.00%      0.00% |           0      0.00%      0.00% |           0      0.00%      0.00% |           0      0.00%      0.00% |           2    100.00%    100.00% |           0      0.00%    100.00% |           0      0.00%    100.00%
system.ruby.dir_cntrl0.S.Memory_Ack::total            2                      

system.ruby.dir_cntrl0.M.PUTX            |        1520      7.97%      7.97% |        1096      5.75%     13.72% |        1339      7.02%     20.74% |        1111      5.83%     26.57% |        1258      6.60%     33.16% |         995      5.22%     38.38% |        1360      7.13%     45.51% |        1059      5.55%     51.06% |        1428      7.49%     58.55% |        1045      5.48%     64.03% |        1326      6.95%     70.99% |         965      5.06%     76.05% |        1474      7.73%     83.78% |        1028      5.39%     89.17% |        1203      6.31%     95.47% |         863      4.53%    100.00%
system.ruby.dir_cntrl0.M.PUTX::total            19070                      

system.ruby.dir_cntrl0.M.PUTO_SHARERS    |           0      0.00%      0.00% |           0      0.00%      0.00% |           0      0.00%      0.00% |           0      0.00%      0.00% |           0      0.00%      0.00% |           0      0.00%      0.00% |           0      0.00%      0.00% |           1     20.00%     20.00% |           1     20.00%     40.00% |           0      0.00%     40.00% |           0      0.00%     40.00% |           0      0.00%     40.00% |           1     20.00%     60.00% |           2     40.00%    100.00% |           0      0.00%    100.00% |           0      0.00%    100.00%
system.ruby.dir_cntrl0.M.PUTO_SHARERS::total            5                      

system.ruby.dir_cntrl0.IS.Exclusive_Unblock |        1077      8.18%      8.18% |         704      5.35%     13.53% |         955      7.25%     20.78% |         705      5.35%     26.14% |         845      6.42%     32.55% |         656      4.98%     37.54% |         966      7.34%     44.87% |         675      5.13%     50.00% |        1030      7.82%     57.82% |         699      5.31%     63.13% |         942      7.15%     70.29% |         629      4.78%     75.06% |        1149      8.73%     83.79% |         678      5.15%     88.94% |         885      6.72%     95.66% |         571      4.34%    100.00%
system.ruby.dir_cntrl0.IS.Exclusive_Unblock::total        13166                      

system.ruby.dir_cntrl0.IS.Memory_Data    |        1077      8.18%      8.18% |         704      5.35%     13.53% |         955      7.25%     20.78% |         705      5.35%     26.14% |         845      6.42%     32.55% |         656      4.98%     37.54% |         966      7.34%     44.87% |         675      5.13%     50.00% |        1030      7.82%     57.82% |         699      5.31%     63.13% |         942      7.15%     70.29% |         629      4.78%     75.06% |        1149      8.73%     83.79% |         678      5.15%     88.94% |         885      6.72%     95.66% |         571      4.34%    100.00%
system.ruby.dir_cntrl0.IS.Memory_Data::total        13166                      

system.ruby.dir_cntrl0.SS.Last_Unblock   |           0      0.00%      0.00% |           0      0.00%      0.00% |           0      0.00%      0.00% |           0      0.00%      0.00% |           0      0.00%      0.00% |           0      0.00%      0.00% |           0      0.00%      0.00% |           1     16.67%     16.67% |           2     33.33%     50.00% |           0      0.00%     50.00% |           0      0.00%     50.00% |           0      0.00%     50.00% |           3     50.00%    100.00% |           0      0.00%    100.00% |           0      0.00%    100.00% |           0      0.00%    100.00%
system.ruby.dir_cntrl0.SS.Last_Unblock::total            6                      

system.ruby.dir_cntrl0.SS.Memory_Data    |           0      0.00%      0.00% |           0      0.00%      0.00% |           0      0.00%      0.00% |           0      0.00%      0.00% |           0      0.00%      0.00% |           0      0.00%      0.00% |           0      0.00%      0.00% |           1     16.67%     16.67% |           2     33.33%     50.00% |           0      0.00%     50.00% |           0      0.00%     50.00% |           0      0.00%     50.00% |           3     50.00%    100.00% |           0      0.00%    100.00% |           0      0.00%    100.00% |           0      0.00%    100.00%
system.ruby.dir_cntrl0.SS.Memory_Data::total            6                      

system.ruby.dir_cntrl0.MM.Exclusive_Unblock |        4220      6.42%      6.42% |        4167      6.34%     12.76% |        4145      6.30%     19.06% |        4163      6.33%     25.39% |        4151      6.31%     31.71% |        4078      6.20%     37.91% |        4135      6.29%     44.20% |        4119      6.27%     50.47% |        4130      6.28%     56.75% |        4076      6.20%     62.95% |        4100      6.24%     69.18% |        4057      6.17%     75.35% |        4048      6.16%     81.51% |        4071      6.19%     87.70% |        4039      6.14%     93.85% |        4045      6.15%    100.00%
system.ruby.dir_cntrl0.MM.Exclusive_Unblock::total        65744                      

system.ruby.dir_cntrl0.MM.Memory_Data    |        4220      6.42%      6.42% |        4167      6.34%     12.76% |        4145      6.30%     19.06% |        4163      6.33%     25.39% |        4151      6.31%     31.71% |        4078      6.20%     37.91% |        4135      6.29%     44.20% |        4119      6.27%     50.47% |        4130      6.28%     56.75% |        4076      6.20%     62.95% |        4100      6.24%     69.18% |        4057      6.17%     75.35% |        4048      6.16%     81.51% |        4071      6.19%     87.70% |        4039      6.14%     93.85% |        4045      6.15%    100.00%
system.ruby.dir_cntrl0.MM.Memory_Data::total        65744                      

system.ruby.dir_cntrl0.MI.Clean_Writeback |         296      9.84%      9.84% |         104      3.46%     13.30% |         245      8.14%     21.44% |          98      3.26%     24.70% |         213      7.08%     31.78% |          97      3.22%     35.01% |         275      9.14%     44.15% |          99      3.29%     47.44% |         294      9.77%     57.21% |         108      3.59%     60.80% |         304     10.11%     70.91% |          98      3.26%     74.17% |         349     11.60%     85.77% |         112      3.72%     89.49% |         229      7.61%     97.11% |          87      2.89%    100.00%
system.ruby.dir_cntrl0.MI.Clean_Writeback::total         3008                      

system.ruby.dir_cntrl0.MI.Dirty_Writeback |        1224      7.62%      7.62% |         992      6.18%     13.80% |        1094      6.81%     20.61% |        1013      6.31%     26.91% |        1045      6.51%     33.42% |         898      5.59%     39.01% |        1085      6.76%     45.77% |         960      5.98%     51.74% |        1134      7.06%     58.80% |         937      5.83%     64.64% |        1022      6.36%     71.00% |         867      5.40%     76.40% |        1125      7.00%     83.40% |         916      5.70%     89.10% |         974      6.06%     95.17% |         776      4.83%    100.00%
system.ruby.dir_cntrl0.MI.Dirty_Writeback::total        16062                      

system.ruby.dir_cntrl0.MIS.Clean_Writeback |           0      0.00%      0.00% |           0      0.00%      0.00% |           0      0.00%      0.00% |           0      0.00%      0.00% |           0      0.00%      0.00% |           0      0.00%      0.00% |           0      0.00%      0.00% |           1     33.33%     33.33% |           1     33.33%     66.67% |           0      0.00%     66.67% |           0      0.00%     66.67% |           0      0.00%     66.67% |           1     33.33%    100.00% |           0      0.00%    100.00% |           0      0.00%    100.00% |           0      0.00%    100.00%
system.ruby.dir_cntrl0.MIS.Clean_Writeback::total            3                      

system.ruby.dir_cntrl0.MIS.Dirty_Writeback |           0      0.00%      0.00% |           0      0.00%      0.00% |           0      0.00%      0.00% |           0      0.00%      0.00% |           0      0.00%      0.00% |           0      0.00%      0.00% |           0      0.00%      0.00% |           0      0.00%      0.00% |           0      0.00%      0.00% |           0      0.00%      0.00% |           0      0.00%      0.00% |           0      0.00%      0.00% |           0      0.00%      0.00% |           2    100.00%    100.00% |           0      0.00%    100.00% |           0      0.00%    100.00%
system.ruby.dir_cntrl0.MIS.Dirty_Writeback::total            2                      


---------- End Simulation Statistics   ----------
