
---------- Begin Simulation Statistics ----------
sim_seconds                                  1.129506                       # Number of seconds simulated
sim_ticks                                1129506442000                       # Number of ticks simulated
final_tick                               1129506442000                       # Number of ticks from beginning of simulation (restored from checkpoints and never reset)
sim_freq                                 1000000000000                       # Frequency of simulated ticks
host_inst_rate                                 119472                       # Simulator instruction rate (inst/s)
host_op_rate                                   184955                       # Simulator op (including micro ops) rate (op/s)
host_tick_rate                               67643561                       # Simulator tick rate (ticks/s)
host_mem_usage                                 367628                       # Number of bytes of host memory used
host_seconds                                 16697.92                       # Real time elapsed on the host
sim_insts                                  1994926552                       # Number of instructions simulated
sim_ops                                    3088370379                       # Number of ops (including micro ops) simulated
system.ruby.l2_cntrl5.L2cache.demand_hits      1237756                       # Number of cache demand hits
system.ruby.l2_cntrl5.L2cache.demand_misses       124133                       # Number of cache demand misses
system.ruby.l2_cntrl5.L2cache.demand_accesses      1361889                       # Number of cache demand accesses
system.ruby.l2_cntrl4.L2cache.demand_hits      1329518                       # Number of cache demand hits
system.ruby.l2_cntrl4.L2cache.demand_misses       127826                       # Number of cache demand misses
system.ruby.l2_cntrl4.L2cache.demand_accesses      1457344                       # Number of cache demand accesses
system.ruby.l2_cntrl11.L2cache.demand_hits      1187325                       # Number of cache demand hits
system.ruby.l2_cntrl11.L2cache.demand_misses       112260                       # Number of cache demand misses
system.ruby.l2_cntrl11.L2cache.demand_accesses      1299585                       # Number of cache demand accesses
system.ruby.l2_cntrl10.L2cache.demand_hits       946060                       # Number of cache demand hits
system.ruby.l2_cntrl10.L2cache.demand_misses        77893                       # Number of cache demand misses
system.ruby.l2_cntrl10.L2cache.demand_accesses      1023953                       # Number of cache demand accesses
system.ruby.l2_cntrl13.L2cache.demand_hits       726823                       # Number of cache demand hits
system.ruby.l2_cntrl13.L2cache.demand_misses        99476                       # Number of cache demand misses
system.ruby.l2_cntrl13.L2cache.demand_accesses       826299                       # Number of cache demand accesses
system.ruby.l2_cntrl12.L2cache.demand_hits      1176214                       # Number of cache demand hits
system.ruby.l2_cntrl12.L2cache.demand_misses       111590                       # Number of cache demand misses
system.ruby.l2_cntrl12.L2cache.demand_accesses      1287804                       # Number of cache demand accesses
system.ruby.l2_cntrl15.L2cache.demand_hits       743746                       # Number of cache demand hits
system.ruby.l2_cntrl15.L2cache.demand_misses        83955                       # Number of cache demand misses
system.ruby.l2_cntrl15.L2cache.demand_accesses       827701                       # Number of cache demand accesses
system.ruby.l2_cntrl14.L2cache.demand_hits      1144908                       # Number of cache demand hits
system.ruby.l2_cntrl14.L2cache.demand_misses       106691                       # Number of cache demand misses
system.ruby.l2_cntrl14.L2cache.demand_accesses      1251599                       # Number of cache demand accesses
system.ruby.l1_cntrl4.L1Dcache.demand_hits     65656756                       # Number of cache demand hits
system.ruby.l1_cntrl4.L1Dcache.demand_misses      1517500                       # Number of cache demand misses
system.ruby.l1_cntrl4.L1Dcache.demand_accesses     67174256                       # Number of cache demand accesses
system.ruby.l1_cntrl4.L1Icache.demand_hits    174033528                       # Number of cache demand hits
system.ruby.l1_cntrl4.L1Icache.demand_misses          228                       # Number of cache demand misses
system.ruby.l1_cntrl4.L1Icache.demand_accesses    174033756                       # Number of cache demand accesses
system.ruby.l1_cntrl5.L1Dcache.demand_hits     65608478                       # Number of cache demand hits
system.ruby.l1_cntrl5.L1Dcache.demand_misses      1530027                       # Number of cache demand misses
system.ruby.l1_cntrl5.L1Dcache.demand_accesses     67138505                       # Number of cache demand accesses
system.ruby.l1_cntrl5.L1Icache.demand_hits    174016087                       # Number of cache demand hits
system.ruby.l1_cntrl5.L1Icache.demand_misses          228                       # Number of cache demand misses
system.ruby.l1_cntrl5.L1Icache.demand_accesses    174016315                       # Number of cache demand accesses
system.ruby.l1_cntrl6.L1Dcache.demand_hits     65984581                       # Number of cache demand hits
system.ruby.l1_cntrl6.L1Dcache.demand_misses      1435509                       # Number of cache demand misses
system.ruby.l1_cntrl6.L1Dcache.demand_accesses     67420090                       # Number of cache demand accesses
system.ruby.l1_cntrl6.L1Icache.demand_hits    174149021                       # Number of cache demand hits
system.ruby.l1_cntrl6.L1Icache.demand_misses          205                       # Number of cache demand misses
system.ruby.l1_cntrl6.L1Icache.demand_accesses    174149226                       # Number of cache demand accesses
system.ruby.l1_cntrl7.L1Dcache.demand_hits     68004966                       # Number of cache demand hits
system.ruby.l1_cntrl7.L1Dcache.demand_misses      1142514                       # Number of cache demand misses
system.ruby.l1_cntrl7.L1Dcache.demand_accesses     69147480                       # Number of cache demand accesses
system.ruby.l1_cntrl7.L1Icache.demand_hits    173687052                       # Number of cache demand hits
system.ruby.l1_cntrl7.L1Icache.demand_misses          214                       # Number of cache demand misses
system.ruby.l1_cntrl7.L1Icache.demand_accesses    173687266                       # Number of cache demand accesses
system.ruby.l1_cntrl0.L1Dcache.demand_hits     74217254                       # Number of cache demand hits
system.ruby.l1_cntrl0.L1Dcache.demand_misses      1312664                       # Number of cache demand misses
system.ruby.l1_cntrl0.L1Dcache.demand_accesses     75529918                       # Number of cache demand accesses
system.ruby.l1_cntrl0.L1Icache.demand_hits    200630793                       # Number of cache demand hits
system.ruby.l1_cntrl0.L1Icache.demand_misses         1158                       # Number of cache demand misses
system.ruby.l1_cntrl0.L1Icache.demand_accesses    200631951                       # Number of cache demand accesses
system.ruby.l1_cntrl1.L1Dcache.demand_hits     68116077                       # Number of cache demand hits
system.ruby.l1_cntrl1.L1Dcache.demand_misses      1038875                       # Number of cache demand misses
system.ruby.l1_cntrl1.L1Dcache.demand_accesses     69154952                       # Number of cache demand accesses
system.ruby.l1_cntrl1.L1Icache.demand_hits    174110860                       # Number of cache demand hits
system.ruby.l1_cntrl1.L1Icache.demand_misses          232                       # Number of cache demand misses
system.ruby.l1_cntrl1.L1Icache.demand_accesses    174111092                       # Number of cache demand accesses
system.ruby.l1_cntrl2.L1Dcache.demand_hits     66547107                       # Number of cache demand hits
system.ruby.l1_cntrl2.L1Dcache.demand_misses      1367305                       # Number of cache demand misses
system.ruby.l1_cntrl2.L1Dcache.demand_accesses     67914412                       # Number of cache demand accesses
system.ruby.l1_cntrl2.L1Icache.demand_hits    173924824                       # Number of cache demand hits
system.ruby.l1_cntrl2.L1Icache.demand_misses          216                       # Number of cache demand misses
system.ruby.l1_cntrl2.L1Icache.demand_accesses    173925040                       # Number of cache demand accesses
system.ruby.l1_cntrl3.L1Dcache.demand_hits     66086926                       # Number of cache demand hits
system.ruby.l1_cntrl3.L1Dcache.demand_misses      1427527                       # Number of cache demand misses
system.ruby.l1_cntrl3.L1Dcache.demand_accesses     67514453                       # Number of cache demand accesses
system.ruby.l1_cntrl3.L1Icache.demand_hits    174078761                       # Number of cache demand hits
system.ruby.l1_cntrl3.L1Icache.demand_misses          205                       # Number of cache demand misses
system.ruby.l1_cntrl3.L1Icache.demand_accesses    174078966                       # Number of cache demand accesses
system.ruby.l2_cntrl1.L2cache.demand_hits      1451604                       # Number of cache demand hits
system.ruby.l2_cntrl1.L2cache.demand_misses       204499                       # Number of cache demand misses
system.ruby.l2_cntrl1.L2cache.demand_accesses      1656103                       # Number of cache demand accesses
system.ruby.l2_cntrl0.L2cache.demand_hits      1661490                       # Number of cache demand hits
system.ruby.l2_cntrl0.L2cache.demand_misses       277925                       # Number of cache demand misses
system.ruby.l2_cntrl0.L2cache.demand_accesses      1939415                       # Number of cache demand accesses
system.ruby.l2_cntrl3.L2cache.demand_hits      1404306                       # Number of cache demand hits
system.ruby.l2_cntrl3.L2cache.demand_misses       203813                       # Number of cache demand misses
system.ruby.l2_cntrl3.L2cache.demand_accesses      1608119                       # Number of cache demand accesses
system.ruby.l2_cntrl2.L2cache.demand_hits      1437064                       # Number of cache demand hits
system.ruby.l2_cntrl2.L2cache.demand_misses       162778                       # Number of cache demand misses
system.ruby.l2_cntrl2.L2cache.demand_accesses      1599842                       # Number of cache demand accesses
system.ruby.l1_cntrl8.L1Dcache.demand_hits     68623026                       # Number of cache demand hits
system.ruby.l1_cntrl8.L1Dcache.demand_misses       940565                       # Number of cache demand misses
system.ruby.l1_cntrl8.L1Dcache.demand_accesses     69563591                       # Number of cache demand accesses
system.ruby.l1_cntrl8.L1Icache.demand_hits    174135882                       # Number of cache demand hits
system.ruby.l1_cntrl8.L1Icache.demand_misses          218                       # Number of cache demand misses
system.ruby.l1_cntrl8.L1Icache.demand_accesses    174136100                       # Number of cache demand accesses
system.ruby.l1_cntrl9.L1Dcache.demand_hits     67385364                       # Number of cache demand hits
system.ruby.l1_cntrl9.L1Dcache.demand_misses      1158491                       # Number of cache demand misses
system.ruby.l1_cntrl9.L1Dcache.demand_accesses     68543855                       # Number of cache demand accesses
system.ruby.l1_cntrl9.L1Icache.demand_hits    174200218                       # Number of cache demand hits
system.ruby.l1_cntrl9.L1Icache.demand_misses          212                       # Number of cache demand misses
system.ruby.l1_cntrl9.L1Icache.demand_accesses    174200430                       # Number of cache demand accesses
system.ruby.l2_cntrl7.L2cache.demand_hits       576438                       # Number of cache demand hits
system.ruby.l2_cntrl7.L2cache.demand_misses        63923                       # Number of cache demand misses
system.ruby.l2_cntrl7.L2cache.demand_accesses       640361                       # Number of cache demand accesses
system.ruby.l2_cntrl6.L2cache.demand_hits      1393981                       # Number of cache demand hits
system.ruby.l2_cntrl6.L2cache.demand_misses       156937                       # Number of cache demand misses
system.ruby.l2_cntrl6.L2cache.demand_accesses      1550918                       # Number of cache demand accesses
system.ruby.l1_cntrl14.L1Dcache.demand_hits     67925044                       # Number of cache demand hits
system.ruby.l1_cntrl14.L1Dcache.demand_misses      1080998                       # Number of cache demand misses
system.ruby.l1_cntrl14.L1Dcache.demand_accesses     69006042                       # Number of cache demand accesses
system.ruby.l1_cntrl14.L1Icache.demand_hits    174112144                       # Number of cache demand hits
system.ruby.l1_cntrl14.L1Icache.demand_misses          218                       # Number of cache demand misses
system.ruby.l1_cntrl14.L1Icache.demand_accesses    174112362                       # Number of cache demand accesses
system.ruby.l1_cntrl15.L1Dcache.demand_hits     68202933                       # Number of cache demand hits
system.ruby.l1_cntrl15.L1Dcache.demand_misses      1025606                       # Number of cache demand misses
system.ruby.l1_cntrl15.L1Dcache.demand_accesses     69228539                       # Number of cache demand accesses
system.ruby.l1_cntrl15.L1Icache.demand_hits    174126931                       # Number of cache demand hits
system.ruby.l1_cntrl15.L1Icache.demand_misses          217                       # Number of cache demand misses
system.ruby.l1_cntrl15.L1Icache.demand_accesses    174127148                       # Number of cache demand accesses
system.ruby.l1_cntrl12.L1Dcache.demand_hits     65530706                       # Number of cache demand hits
system.ruby.l1_cntrl12.L1Dcache.demand_misses      1529883                       # Number of cache demand misses
system.ruby.l1_cntrl12.L1Dcache.demand_accesses     67060589                       # Number of cache demand accesses
system.ruby.l1_cntrl12.L1Icache.demand_hits    174095925                       # Number of cache demand hits
system.ruby.l1_cntrl12.L1Icache.demand_misses          231                       # Number of cache demand misses
system.ruby.l1_cntrl12.L1Icache.demand_accesses    174096156                       # Number of cache demand accesses
system.ruby.l1_cntrl13.L1Dcache.demand_hits     65926978                       # Number of cache demand hits
system.ruby.l1_cntrl13.L1Dcache.demand_misses      1447223                       # Number of cache demand misses
system.ruby.l1_cntrl13.L1Dcache.demand_accesses     67374201                       # Number of cache demand accesses
system.ruby.l1_cntrl13.L1Icache.demand_hits    174130066                       # Number of cache demand hits
system.ruby.l1_cntrl13.L1Icache.demand_misses          210                       # Number of cache demand misses
system.ruby.l1_cntrl13.L1Icache.demand_accesses    174130276                       # Number of cache demand accesses
system.ruby.l1_cntrl10.L1Dcache.demand_hits     65944261                       # Number of cache demand hits
system.ruby.l1_cntrl10.L1Dcache.demand_misses      1455760                       # Number of cache demand misses
system.ruby.l1_cntrl10.L1Dcache.demand_accesses     67400021                       # Number of cache demand accesses
system.ruby.l1_cntrl10.L1Icache.demand_hits    174085687                       # Number of cache demand hits
system.ruby.l1_cntrl10.L1Icache.demand_misses          230                       # Number of cache demand misses
system.ruby.l1_cntrl10.L1Icache.demand_accesses    174085917                       # Number of cache demand accesses
system.ruby.l1_cntrl11.L1Dcache.demand_hits     65931049                       # Number of cache demand hits
system.ruby.l1_cntrl11.L1Dcache.demand_misses      1469834                       # Number of cache demand misses
system.ruby.l1_cntrl11.L1Dcache.demand_accesses     67400883                       # Number of cache demand accesses
system.ruby.l1_cntrl11.L1Icache.demand_hits    174025790                       # Number of cache demand hits
system.ruby.l1_cntrl11.L1Icache.demand_misses          231                       # Number of cache demand misses
system.ruby.l1_cntrl11.L1Icache.demand_accesses    174026021                       # Number of cache demand accesses
system.ruby.l2_cntrl9.L2cache.demand_hits       912243                       # Number of cache demand hits
system.ruby.l2_cntrl9.L2cache.demand_misses       146569                       # Number of cache demand misses
system.ruby.l2_cntrl9.L2cache.demand_accesses      1058812                       # Number of cache demand accesses
system.ruby.l2_cntrl8.L2cache.demand_hits      1359710                       # Number of cache demand hits
system.ruby.l2_cntrl8.L2cache.demand_misses       135280                       # Number of cache demand misses
system.ruby.l2_cntrl8.L2cache.demand_accesses      1494990                       # Number of cache demand accesses
system.ruby.dir_cntrl0.memBuffer.memReq          6362                       # Total number of memory requests
system.ruby.dir_cntrl0.memBuffer.memRead         5216                       # Number of memory reads
system.ruby.dir_cntrl0.memBuffer.memWrite         1146                       # Number of memory writes
system.ruby.dir_cntrl0.memBuffer.memRefresh       111949                       # Number of memory refreshes
system.ruby.dir_cntrl0.memBuffer.memWaitCycles          858                       # Delay stalled at the head of the bank queue
system.ruby.dir_cntrl0.memBuffer.memInputQ            2                       # Delay in the input queue
system.ruby.dir_cntrl0.memBuffer.totalStalls          860                       # Total number of stall cycles
system.ruby.dir_cntrl0.memBuffer.stallsPerReq     0.135178                       # Expected number of stall cycles per request
system.ruby.dir_cntrl0.memBuffer.memBankBusy          343                       # memory stalls due to busy bank
system.ruby.dir_cntrl0.memBuffer.memBusBusy          458                       # memory stalls due to busy bus
system.ruby.dir_cntrl0.memBuffer.memReadWriteBusy            1                       # memory stalls due to read write turnaround
system.ruby.dir_cntrl0.memBuffer.memDataBusBusy            5                       # memory stalls due to read read turnaround
system.ruby.dir_cntrl0.memBuffer.memArbWait           51                       # memory stalls due to arbitration
system.ruby.dir_cntrl0.memBuffer.memBankCount |         746     11.73%     11.73% |           0      0.00%     11.73% |           0      0.00%     11.73% |           0      0.00%     11.73% |         601      9.45%     21.17% |           0      0.00%     21.17% |           0      0.00%     21.17% |           0      0.00%     21.17% |         571      8.98%     30.15% |           0      0.00%     30.15% |           0      0.00%     30.15% |           0      0.00%     30.15% |         568      8.93%     39.08% |           0      0.00%     39.08% |           0      0.00%     39.08% |           0      0.00%     39.08% |        1280     20.12%     59.20% |           0      0.00%     59.20% |           0      0.00%     59.20% |           0      0.00%     59.20% |        1149     18.06%     77.26% |           0      0.00%     77.26% |           0      0.00%     77.26% |           0      0.00%     77.26% |         782     12.29%     89.55% |           0      0.00%     89.55% |           0      0.00%     89.55% |           0      0.00%     89.55% |         665     10.45%    100.00% |           0      0.00%    100.00% |           0      0.00%    100.00% |           0      0.00%    100.00% # Number of accesses per bank
system.ruby.dir_cntrl0.memBuffer.memBankCount::total         6362                       # Number of accesses per bank

system.ruby.dir_cntrl1.memBuffer.memReq          5741                       # Total number of memory requests
system.ruby.dir_cntrl1.memBuffer.memRead         4803                       # Number of memory reads
system.ruby.dir_cntrl1.memBuffer.memWrite          938                       # Number of memory writes
system.ruby.dir_cntrl1.memBuffer.memRefresh       106929                       # Number of memory refreshes
system.ruby.dir_cntrl1.memBuffer.memWaitCycles          699                       # Delay stalled at the head of the bank queue
system.ruby.dir_cntrl1.memBuffer.totalStalls          699                       # Total number of stall cycles
system.ruby.dir_cntrl1.memBuffer.stallsPerReq     0.121756                       # Expected number of stall cycles per request
system.ruby.dir_cntrl1.memBuffer.memBankBusy          283                       # memory stalls due to busy bank
system.ruby.dir_cntrl1.memBuffer.memBusBusy          398                       # memory stalls due to busy bus
system.ruby.dir_cntrl1.memBuffer.memArbWait           18                       # memory stalls due to arbitration
system.ruby.dir_cntrl1.memBuffer.memBankCount |         604     10.52%     10.52% |           0      0.00%     10.52% |           0      0.00%     10.52% |           0      0.00%     10.52% |         577     10.05%     20.57% |           0      0.00%     20.57% |           0      0.00%     20.57% |           0      0.00%     20.57% |         532      9.27%     29.84% |           0      0.00%     29.84% |           0      0.00%     29.84% |           0      0.00%     29.84% |         546      9.51%     39.35% |           0      0.00%     39.35% |           0      0.00%     39.35% |           0      0.00%     39.35% |        1122     19.54%     58.89% |           0      0.00%     58.89% |           0      0.00%     58.89% |           0      0.00%     58.89% |        1012     17.63%     76.52% |           0      0.00%     76.52% |           0      0.00%     76.52% |           0      0.00%     76.52% |         725     12.63%     89.15% |           0      0.00%     89.15% |           0      0.00%     89.15% |           0      0.00%     89.15% |         623     10.85%    100.00% |           0      0.00%    100.00% |           0      0.00%    100.00% |           0      0.00%    100.00% # Number of accesses per bank
system.ruby.dir_cntrl1.memBuffer.memBankCount::total         5741                       # Number of accesses per bank

system.ruby.dir_cntrl2.memBuffer.memReq          6051                       # Total number of memory requests
system.ruby.dir_cntrl2.memBuffer.memRead         5023                       # Number of memory reads
system.ruby.dir_cntrl2.memBuffer.memWrite         1028                       # Number of memory writes
system.ruby.dir_cntrl2.memBuffer.memRefresh       107508                       # Number of memory refreshes
system.ruby.dir_cntrl2.memBuffer.memWaitCycles          753                       # Delay stalled at the head of the bank queue
system.ruby.dir_cntrl2.memBuffer.totalStalls          753                       # Total number of stall cycles
system.ruby.dir_cntrl2.memBuffer.stallsPerReq     0.124442                       # Expected number of stall cycles per request
system.ruby.dir_cntrl2.memBuffer.memBankBusy          306                       # memory stalls due to busy bank
system.ruby.dir_cntrl2.memBuffer.memBusBusy          414                       # memory stalls due to busy bus
system.ruby.dir_cntrl2.memBuffer.memArbWait           33                       # memory stalls due to arbitration
system.ruby.dir_cntrl2.memBuffer.memBankCount |         650     10.74%     10.74% |           0      0.00%     10.74% |           0      0.00%     10.74% |           0      0.00%     10.74% |         592      9.78%     20.53% |           0      0.00%     20.53% |           0      0.00%     20.53% |           0      0.00%     20.53% |         565      9.34%     29.86% |           0      0.00%     29.86% |           0      0.00%     29.86% |           0      0.00%     29.86% |         549      9.07%     38.94% |           0      0.00%     38.94% |           0      0.00%     38.94% |           0      0.00%     38.94% |        1152     19.04%     57.97% |           0      0.00%     57.97% |           0      0.00%     57.97% |           0      0.00%     57.97% |        1122     18.54%     76.52% |           0      0.00%     76.52% |           0      0.00%     76.52% |           0      0.00%     76.52% |         775     12.81%     89.32% |           0      0.00%     89.32% |           0      0.00%     89.32% |           0      0.00%     89.32% |         646     10.68%    100.00% |           0      0.00%    100.00% |           0      0.00%    100.00% |           0      0.00%    100.00% # Number of accesses per bank
system.ruby.dir_cntrl2.memBuffer.memBankCount::total         6051                       # Number of accesses per bank

system.ruby.dir_cntrl3.memBuffer.memReq          5764                       # Total number of memory requests
system.ruby.dir_cntrl3.memBuffer.memRead         4801                       # Number of memory reads
system.ruby.dir_cntrl3.memBuffer.memWrite          963                       # Number of memory writes
system.ruby.dir_cntrl3.memBuffer.memRefresh       107580                       # Number of memory refreshes
system.ruby.dir_cntrl3.memBuffer.memWaitCycles          674                       # Delay stalled at the head of the bank queue
system.ruby.dir_cntrl3.memBuffer.memBankQ            1                       # Delay behind the head of the bank queue
system.ruby.dir_cntrl3.memBuffer.totalStalls          675                       # Total number of stall cycles
system.ruby.dir_cntrl3.memBuffer.stallsPerReq     0.117106                       # Expected number of stall cycles per request
system.ruby.dir_cntrl3.memBuffer.memBankBusy          234                       # memory stalls due to busy bank
system.ruby.dir_cntrl3.memBuffer.memBusBusy          415                       # memory stalls due to busy bus
system.ruby.dir_cntrl3.memBuffer.memReadWriteBusy            1                       # memory stalls due to read write turnaround
system.ruby.dir_cntrl3.memBuffer.memArbWait           24                       # memory stalls due to arbitration
system.ruby.dir_cntrl3.memBuffer.memBankCount |         608     10.55%     10.55% |           0      0.00%     10.55% |           0      0.00%     10.55% |           0      0.00%     10.55% |         540      9.37%     19.92% |           0      0.00%     19.92% |           0      0.00%     19.92% |           0      0.00%     19.92% |         572      9.92%     29.84% |           0      0.00%     29.84% |           0      0.00%     29.84% |           0      0.00%     29.84% |         535      9.28%     39.12% |           0      0.00%     39.12% |           0      0.00%     39.12% |           0      0.00%     39.12% |        1090     18.91%     58.03% |           0      0.00%     58.03% |           0      0.00%     58.03% |           0      0.00%     58.03% |        1075     18.65%     76.68% |           0      0.00%     76.68% |           0      0.00%     76.68% |           0      0.00%     76.68% |         729     12.65%     89.33% |           0      0.00%     89.33% |           0      0.00%     89.33% |           0      0.00%     89.33% |         615     10.67%    100.00% |           0      0.00%    100.00% |           0      0.00%    100.00% |           0      0.00%    100.00% # Number of accesses per bank
system.ruby.dir_cntrl3.memBuffer.memBankCount::total         5764                       # Number of accesses per bank

system.ruby.dir_cntrl4.memBuffer.memReq          5943                       # Total number of memory requests
system.ruby.dir_cntrl4.memBuffer.memRead         4956                       # Number of memory reads
system.ruby.dir_cntrl4.memBuffer.memWrite          987                       # Number of memory writes
system.ruby.dir_cntrl4.memBuffer.memRefresh       106327                       # Number of memory refreshes
system.ruby.dir_cntrl4.memBuffer.memWaitCycles          725                       # Delay stalled at the head of the bank queue
system.ruby.dir_cntrl4.memBuffer.totalStalls          725                       # Total number of stall cycles
system.ruby.dir_cntrl4.memBuffer.stallsPerReq     0.121992                       # Expected number of stall cycles per request
system.ruby.dir_cntrl4.memBuffer.memBankBusy          289                       # memory stalls due to busy bank
system.ruby.dir_cntrl4.memBuffer.memBusBusy          410                       # memory stalls due to busy bus
system.ruby.dir_cntrl4.memBuffer.memArbWait           26                       # memory stalls due to arbitration
system.ruby.dir_cntrl4.memBuffer.memBankCount |           0      0.00%      0.00% |         575      9.68%      9.68% |           0      0.00%      9.68% |           0      0.00%      9.68% |           0      0.00%      9.68% |         574      9.66%     19.33% |           0      0.00%     19.33% |           0      0.00%     19.33% |           0      0.00%     19.33% |         589      9.91%     29.24% |           0      0.00%     29.24% |           0      0.00%     29.24% |           0      0.00%     29.24% |         558      9.39%     38.63% |           0      0.00%     38.63% |           0      0.00%     38.63% |           0      0.00%     38.63% |        1210     20.36%     58.99% |           0      0.00%     58.99% |           0      0.00%     58.99% |           0      0.00%     58.99% |        1022     17.20%     76.19% |           0      0.00%     76.19% |           0      0.00%     76.19% |           0      0.00%     76.19% |         765     12.87%     89.06% |           0      0.00%     89.06% |           0      0.00%     89.06% |           0      0.00%     89.06% |         650     10.94%    100.00% |           0      0.00%    100.00% |           0      0.00%    100.00% # Number of accesses per bank
system.ruby.dir_cntrl4.memBuffer.memBankCount::total         5943                       # Number of accesses per bank

system.ruby.dir_cntrl5.memBuffer.memReq          5597                       # Total number of memory requests
system.ruby.dir_cntrl5.memBuffer.memRead         4716                       # Number of memory reads
system.ruby.dir_cntrl5.memBuffer.memWrite          881                       # Number of memory writes
system.ruby.dir_cntrl5.memBuffer.memRefresh       104886                       # Number of memory refreshes
system.ruby.dir_cntrl5.memBuffer.memWaitCycles          658                       # Delay stalled at the head of the bank queue
system.ruby.dir_cntrl5.memBuffer.totalStalls          658                       # Total number of stall cycles
system.ruby.dir_cntrl5.memBuffer.stallsPerReq     0.117563                       # Expected number of stall cycles per request
system.ruby.dir_cntrl5.memBuffer.memBankBusy          254                       # memory stalls due to busy bank
system.ruby.dir_cntrl5.memBuffer.memBusBusy          390                       # memory stalls due to busy bus
system.ruby.dir_cntrl5.memBuffer.memArbWait           14                       # memory stalls due to arbitration
system.ruby.dir_cntrl5.memBuffer.memBankCount |           0      0.00%      0.00% |         576     10.29%     10.29% |           0      0.00%     10.29% |           0      0.00%     10.29% |           0      0.00%     10.29% |         543      9.70%     19.99% |           0      0.00%     19.99% |           0      0.00%     19.99% |           0      0.00%     19.99% |         554      9.90%     29.89% |           0      0.00%     29.89% |           0      0.00%     29.89% |           0      0.00%     29.89% |         530      9.47%     39.36% |           0      0.00%     39.36% |           0      0.00%     39.36% |           0      0.00%     39.36% |        1127     20.14%     59.50% |           0      0.00%     59.50% |           0      0.00%     59.50% |           0      0.00%     59.50% |        1006     17.97%     77.47% |           0      0.00%     77.47% |           0      0.00%     77.47% |           0      0.00%     77.47% |         671     11.99%     89.46% |           0      0.00%     89.46% |           0      0.00%     89.46% |           0      0.00%     89.46% |         590     10.54%    100.00% |           0      0.00%    100.00% |           0      0.00%    100.00% # Number of accesses per bank
system.ruby.dir_cntrl5.memBuffer.memBankCount::total         5597                       # Number of accesses per bank

system.ruby.dir_cntrl6.memBuffer.memReq          6134                       # Total number of memory requests
system.ruby.dir_cntrl6.memBuffer.memRead         5071                       # Number of memory reads
system.ruby.dir_cntrl6.memBuffer.memWrite         1063                       # Number of memory writes
system.ruby.dir_cntrl6.memBuffer.memRefresh       110209                       # Number of memory refreshes
system.ruby.dir_cntrl6.memBuffer.memWaitCycles          689                       # Delay stalled at the head of the bank queue
system.ruby.dir_cntrl6.memBuffer.memInputQ            1                       # Delay in the input queue
system.ruby.dir_cntrl6.memBuffer.totalStalls          690                       # Total number of stall cycles
system.ruby.dir_cntrl6.memBuffer.stallsPerReq     0.112488                       # Expected number of stall cycles per request
system.ruby.dir_cntrl6.memBuffer.memBankBusy          209                       # memory stalls due to busy bank
system.ruby.dir_cntrl6.memBuffer.memBusBusy          443                       # memory stalls due to busy bus
system.ruby.dir_cntrl6.memBuffer.memDataBusBusy            2                       # memory stalls due to read read turnaround
system.ruby.dir_cntrl6.memBuffer.memArbWait           35                       # memory stalls due to arbitration
system.ruby.dir_cntrl6.memBuffer.memBankCount |           0      0.00%      0.00% |         610      9.94%      9.94% |           0      0.00%      9.94% |           0      0.00%      9.94% |           0      0.00%      9.94% |         577      9.41%     19.35% |           0      0.00%     19.35% |           0      0.00%     19.35% |           0      0.00%     19.35% |         575      9.37%     28.73% |           0      0.00%     28.73% |           0      0.00%     28.73% |           0      0.00%     28.73% |         537      8.75%     37.48% |           0      0.00%     37.48% |           0      0.00%     37.48% |           0      0.00%     37.48% |        1141     18.60%     56.08% |           0      0.00%     56.08% |           0      0.00%     56.08% |           0      0.00%     56.08% |        1296     21.13%     77.21% |           0      0.00%     77.21% |           0      0.00%     77.21% |           0      0.00%     77.21% |         773     12.60%     89.81% |           0      0.00%     89.81% |           0      0.00%     89.81% |           0      0.00%     89.81% |         625     10.19%    100.00% |           0      0.00%    100.00% |           0      0.00%    100.00% # Number of accesses per bank
system.ruby.dir_cntrl6.memBuffer.memBankCount::total         6134                       # Number of accesses per bank

system.ruby.dir_cntrl7.memBuffer.memReq          5683                       # Total number of memory requests
system.ruby.dir_cntrl7.memBuffer.memRead         4758                       # Number of memory reads
system.ruby.dir_cntrl7.memBuffer.memWrite          925                       # Number of memory writes
system.ruby.dir_cntrl7.memBuffer.memRefresh       107019                       # Number of memory refreshes
system.ruby.dir_cntrl7.memBuffer.memWaitCycles          668                       # Delay stalled at the head of the bank queue
system.ruby.dir_cntrl7.memBuffer.totalStalls          668                       # Total number of stall cycles
system.ruby.dir_cntrl7.memBuffer.stallsPerReq     0.117544                       # Expected number of stall cycles per request
system.ruby.dir_cntrl7.memBuffer.memBankBusy          206                       # memory stalls due to busy bank
system.ruby.dir_cntrl7.memBuffer.memBusBusy          435                       # memory stalls due to busy bus
system.ruby.dir_cntrl7.memBuffer.memReadWriteBusy            3                       # memory stalls due to read write turnaround
system.ruby.dir_cntrl7.memBuffer.memDataBusBusy            1                       # memory stalls due to read read turnaround
system.ruby.dir_cntrl7.memBuffer.memArbWait           23                       # memory stalls due to arbitration
system.ruby.dir_cntrl7.memBuffer.memBankCount |           0      0.00%      0.00% |         570     10.03%     10.03% |           0      0.00%     10.03% |           0      0.00%     10.03% |           0      0.00%     10.03% |         557      9.80%     19.83% |           0      0.00%     19.83% |           0      0.00%     19.83% |           0      0.00%     19.83% |         556      9.78%     29.61% |           0      0.00%     29.61% |           0      0.00%     29.61% |           0      0.00%     29.61% |         526      9.26%     38.87% |           0      0.00%     38.87% |           0      0.00%     38.87% |           0      0.00%     38.87% |        1188     20.90%     59.77% |           0      0.00%     59.77% |           0      0.00%     59.77% |           0      0.00%     59.77% |        1012     17.81%     77.58% |           0      0.00%     77.58% |           0      0.00%     77.58% |           0      0.00%     77.58% |         683     12.02%     89.60% |           0      0.00%     89.60% |           0      0.00%     89.60% |           0      0.00%     89.60% |         591     10.40%    100.00% |           0      0.00%    100.00% |           0      0.00%    100.00% # Number of accesses per bank
system.ruby.dir_cntrl7.memBuffer.memBankCount::total         5683                       # Number of accesses per bank

system.ruby.dir_cntrl8.memBuffer.memReq          6235                       # Total number of memory requests
system.ruby.dir_cntrl8.memBuffer.memRead         5136                       # Number of memory reads
system.ruby.dir_cntrl8.memBuffer.memWrite         1099                       # Number of memory writes
system.ruby.dir_cntrl8.memBuffer.memRefresh       111796                       # Number of memory refreshes
system.ruby.dir_cntrl8.memBuffer.memWaitCycles          807                       # Delay stalled at the head of the bank queue
system.ruby.dir_cntrl8.memBuffer.totalStalls          807                       # Total number of stall cycles
system.ruby.dir_cntrl8.memBuffer.stallsPerReq     0.129431                       # Expected number of stall cycles per request
system.ruby.dir_cntrl8.memBuffer.memBankBusy          267                       # memory stalls due to busy bank
system.ruby.dir_cntrl8.memBuffer.memBusBusy          478                       # memory stalls due to busy bus
system.ruby.dir_cntrl8.memBuffer.memDataBusBusy            5                       # memory stalls due to read read turnaround
system.ruby.dir_cntrl8.memBuffer.memArbWait           57                       # memory stalls due to arbitration
system.ruby.dir_cntrl8.memBuffer.memBankCount |           0      0.00%      0.00% |           0      0.00%      0.00% |         616      9.88%      9.88% |           0      0.00%      9.88% |           0      0.00%      9.88% |           0      0.00%      9.88% |         604      9.69%     19.57% |           0      0.00%     19.57% |           0      0.00%     19.57% |           0      0.00%     19.57% |         585      9.38%     28.95% |           0      0.00%     28.95% |           0      0.00%     28.95% |           0      0.00%     28.95% |         551      8.84%     37.79% |           0      0.00%     37.79% |           0      0.00%     37.79% |           0      0.00%     37.79% |        1331     21.35%     59.13% |           0      0.00%     59.13% |           0      0.00%     59.13% |           0      0.00%     59.13% |        1123     18.01%     77.15% |           0      0.00%     77.15% |           0      0.00%     77.15% |           0      0.00%     77.15% |         739     11.85%     89.00% |           0      0.00%     89.00% |           0      0.00%     89.00% |           0      0.00%     89.00% |         686     11.00%    100.00% |           0      0.00%    100.00% # Number of accesses per bank
system.ruby.dir_cntrl8.memBuffer.memBankCount::total         6235                       # Number of accesses per bank

system.ruby.dir_cntrl9.memBuffer.memReq          5608                       # Total number of memory requests
system.ruby.dir_cntrl9.memBuffer.memRead         4720                       # Number of memory reads
system.ruby.dir_cntrl9.memBuffer.memWrite          888                       # Number of memory writes
system.ruby.dir_cntrl9.memBuffer.memRefresh       105800                       # Number of memory refreshes
system.ruby.dir_cntrl9.memBuffer.memWaitCycles          693                       # Delay stalled at the head of the bank queue
system.ruby.dir_cntrl9.memBuffer.memInputQ            1                       # Delay in the input queue
system.ruby.dir_cntrl9.memBuffer.memBankQ            3                       # Delay behind the head of the bank queue
system.ruby.dir_cntrl9.memBuffer.totalStalls          697                       # Total number of stall cycles
system.ruby.dir_cntrl9.memBuffer.stallsPerReq     0.124287                       # Expected number of stall cycles per request
system.ruby.dir_cntrl9.memBuffer.memBankBusy          251                       # memory stalls due to busy bank
system.ruby.dir_cntrl9.memBuffer.memBusBusy          416                       # memory stalls due to busy bus
system.ruby.dir_cntrl9.memBuffer.memDataBusBusy            2                       # memory stalls due to read read turnaround
system.ruby.dir_cntrl9.memBuffer.memArbWait           24                       # memory stalls due to arbitration
system.ruby.dir_cntrl9.memBuffer.memBankCount |           0      0.00%      0.00% |           0      0.00%      0.00% |         569     10.15%     10.15% |           0      0.00%     10.15% |           0      0.00%     10.15% |           0      0.00%     10.15% |         534      9.52%     19.67% |           0      0.00%     19.67% |           0      0.00%     19.67% |           0      0.00%     19.67% |         529      9.43%     29.10% |           0      0.00%     29.10% |           0      0.00%     29.10% |           0      0.00%     29.10% |         532      9.49%     38.59% |           0      0.00%     38.59% |           0      0.00%     38.59% |           0      0.00%     38.59% |        1172     20.90%     59.49% |           0      0.00%     59.49% |           0      0.00%     59.49% |           0      0.00%     59.49% |        1010     18.01%     77.50% |           0      0.00%     77.50% |           0      0.00%     77.50% |           0      0.00%     77.50% |         669     11.93%     89.43% |           0      0.00%     89.43% |           0      0.00%     89.43% |           0      0.00%     89.43% |         593     10.57%    100.00% |           0      0.00%    100.00% # Number of accesses per bank
system.ruby.dir_cntrl9.memBuffer.memBankCount::total         5608                       # Number of accesses per bank

system.ruby.dir_cntrl10.memBuffer.memReq         5987                       # Total number of memory requests
system.ruby.dir_cntrl10.memBuffer.memRead         4998                       # Number of memory reads
system.ruby.dir_cntrl10.memBuffer.memWrite          989                       # Number of memory writes
system.ruby.dir_cntrl10.memBuffer.memRefresh       108646                       # Number of memory refreshes
system.ruby.dir_cntrl10.memBuffer.memWaitCycles          785                       # Delay stalled at the head of the bank queue
system.ruby.dir_cntrl10.memBuffer.totalStalls          785                       # Total number of stall cycles
system.ruby.dir_cntrl10.memBuffer.stallsPerReq     0.131117                       # Expected number of stall cycles per request
system.ruby.dir_cntrl10.memBuffer.memBankBusy          321                       # memory stalls due to busy bank
system.ruby.dir_cntrl10.memBuffer.memBusBusy          432                       # memory stalls due to busy bus
system.ruby.dir_cntrl10.memBuffer.memDataBusBusy            3                       # memory stalls due to read read turnaround
system.ruby.dir_cntrl10.memBuffer.memArbWait           29                       # memory stalls due to arbitration
system.ruby.dir_cntrl10.memBuffer.memBankCount |           0      0.00%      0.00% |           0      0.00%      0.00% |         595      9.94%      9.94% |           0      0.00%      9.94% |           0      0.00%      9.94% |           0      0.00%      9.94% |         564      9.42%     19.36% |           0      0.00%     19.36% |           0      0.00%     19.36% |           0      0.00%     19.36% |         553      9.24%     28.60% |           0      0.00%     28.60% |           0      0.00%     28.60% |           0      0.00%     28.60% |         540      9.02%     37.61% |           0      0.00%     37.61% |           0      0.00%     37.61% |           0      0.00%     37.61% |        1389     23.20%     60.82% |           0      0.00%     60.82% |           0      0.00%     60.82% |           0      0.00%     60.82% |        1097     18.32%     79.14% |           0      0.00%     79.14% |           0      0.00%     79.14% |           0      0.00%     79.14% |         643     10.74%     89.88% |           0      0.00%     89.88% |           0      0.00%     89.88% |           0      0.00%     89.88% |         606     10.12%    100.00% |           0      0.00%    100.00% # Number of accesses per bank
system.ruby.dir_cntrl10.memBuffer.memBankCount::total         5987                       # Number of accesses per bank

system.ruby.dir_cntrl11.memBuffer.memReq         5522                       # Total number of memory requests
system.ruby.dir_cntrl11.memBuffer.memRead         4674                       # Number of memory reads
system.ruby.dir_cntrl11.memBuffer.memWrite          848                       # Number of memory writes
system.ruby.dir_cntrl11.memBuffer.memRefresh       104859                       # Number of memory refreshes
system.ruby.dir_cntrl11.memBuffer.memWaitCycles          760                       # Delay stalled at the head of the bank queue
system.ruby.dir_cntrl11.memBuffer.memInputQ            1                       # Delay in the input queue
system.ruby.dir_cntrl11.memBuffer.memBankQ           83                       # Delay behind the head of the bank queue
system.ruby.dir_cntrl11.memBuffer.totalStalls          844                       # Total number of stall cycles
system.ruby.dir_cntrl11.memBuffer.stallsPerReq     0.152843                       # Expected number of stall cycles per request
system.ruby.dir_cntrl11.memBuffer.memBankBusy          304                       # memory stalls due to busy bank
system.ruby.dir_cntrl11.memBuffer.memBusBusy          429                       # memory stalls due to busy bus
system.ruby.dir_cntrl11.memBuffer.memDataBusBusy            1                       # memory stalls due to read read turnaround
system.ruby.dir_cntrl11.memBuffer.memArbWait           26                       # memory stalls due to arbitration
system.ruby.dir_cntrl11.memBuffer.memBankCount |           0      0.00%      0.00% |           0      0.00%      0.00% |         560     10.14%     10.14% |           0      0.00%     10.14% |           0      0.00%     10.14% |           0      0.00%     10.14% |         558     10.11%     20.25% |           0      0.00%     20.25% |           0      0.00%     20.25% |           0      0.00%     20.25% |         540      9.78%     30.03% |           0      0.00%     30.03% |           0      0.00%     30.03% |           0      0.00%     30.03% |         541      9.80%     39.82% |           0      0.00%     39.82% |           0      0.00%     39.82% |           0      0.00%     39.82% |        1150     20.83%     60.65% |           0      0.00%     60.65% |           0      0.00%     60.65% |           0      0.00%     60.65% |         962     17.42%     78.07% |           0      0.00%     78.07% |           0      0.00%     78.07% |           0      0.00%     78.07% |         646     11.70%     89.77% |           0      0.00%     89.77% |           0      0.00%     89.77% |           0      0.00%     89.77% |         565     10.23%    100.00% |           0      0.00%    100.00% # Number of accesses per bank
system.ruby.dir_cntrl11.memBuffer.memBankCount::total         5522                       # Number of accesses per bank

system.ruby.dir_cntrl12.memBuffer.memReq         6278                       # Total number of memory requests
system.ruby.dir_cntrl12.memBuffer.memRead         5172                       # Number of memory reads
system.ruby.dir_cntrl12.memBuffer.memWrite         1106                       # Number of memory writes
system.ruby.dir_cntrl12.memBuffer.memRefresh       114184                       # Number of memory refreshes
system.ruby.dir_cntrl12.memBuffer.memWaitCycles          751                       # Delay stalled at the head of the bank queue
system.ruby.dir_cntrl12.memBuffer.memInputQ            2                       # Delay in the input queue
system.ruby.dir_cntrl12.memBuffer.totalStalls          753                       # Total number of stall cycles
system.ruby.dir_cntrl12.memBuffer.stallsPerReq     0.119943                       # Expected number of stall cycles per request
system.ruby.dir_cntrl12.memBuffer.memBankBusy          283                       # memory stalls due to busy bank
system.ruby.dir_cntrl12.memBuffer.memBusBusy          430                       # memory stalls due to busy bus
system.ruby.dir_cntrl12.memBuffer.memDataBusBusy            4                       # memory stalls due to read read turnaround
system.ruby.dir_cntrl12.memBuffer.memArbWait           34                       # memory stalls due to arbitration
system.ruby.dir_cntrl12.memBuffer.memBankCount |           0      0.00%      0.00% |           0      0.00%      0.00% |           0      0.00%      0.00% |         579      9.22%      9.22% |           0      0.00%      9.22% |           0      0.00%      9.22% |           0      0.00%      9.22% |         572      9.11%     18.33% |           0      0.00%     18.33% |           0      0.00%     18.33% |           0      0.00%     18.33% |         554      8.82%     27.16% |           0      0.00%     27.16% |           0      0.00%     27.16% |           0      0.00%     27.16% |         554      8.82%     35.98% |           0      0.00%     35.98% |           0      0.00%     35.98% |           0      0.00%     35.98% |        1244     19.82%     55.80% |           0      0.00%     55.80% |           0      0.00%     55.80% |           0      0.00%     55.80% |        1400     22.30%     78.10% |           0      0.00%     78.10% |           0      0.00%     78.10% |           0      0.00%     78.10% |         712     11.34%     89.44% |           0      0.00%     89.44% |           0      0.00%     89.44% |           0      0.00%     89.44% |         663     10.56%    100.00% # Number of accesses per bank
system.ruby.dir_cntrl12.memBuffer.memBankCount::total         6278                       # Number of accesses per bank

system.ruby.dir_cntrl13.memBuffer.memReq         5611                       # Total number of memory requests
system.ruby.dir_cntrl13.memBuffer.memRead         4714                       # Number of memory reads
system.ruby.dir_cntrl13.memBuffer.memWrite          897                       # Number of memory writes
system.ruby.dir_cntrl13.memBuffer.memRefresh       106177                       # Number of memory refreshes
system.ruby.dir_cntrl13.memBuffer.memWaitCycles          650                       # Delay stalled at the head of the bank queue
system.ruby.dir_cntrl13.memBuffer.totalStalls          650                       # Total number of stall cycles
system.ruby.dir_cntrl13.memBuffer.stallsPerReq     0.115844                       # Expected number of stall cycles per request
system.ruby.dir_cntrl13.memBuffer.memBankBusy          235                       # memory stalls due to busy bank
system.ruby.dir_cntrl13.memBuffer.memBusBusy          396                       # memory stalls due to busy bus
system.ruby.dir_cntrl13.memBuffer.memDataBusBusy            2                       # memory stalls due to read read turnaround
system.ruby.dir_cntrl13.memBuffer.memArbWait           17                       # memory stalls due to arbitration
system.ruby.dir_cntrl13.memBuffer.memBankCount |           0      0.00%      0.00% |           0      0.00%      0.00% |           0      0.00%      0.00% |         577     10.28%     10.28% |           0      0.00%     10.28% |           0      0.00%     10.28% |           0      0.00%     10.28% |         551      9.82%     20.10% |           0      0.00%     20.10% |           0      0.00%     20.10% |           0      0.00%     20.10% |         557      9.93%     30.03% |           0      0.00%     30.03% |           0      0.00%     30.03% |           0      0.00%     30.03% |         557      9.93%     39.96% |           0      0.00%     39.96% |           0      0.00%     39.96% |           0      0.00%     39.96% |        1140     20.32%     60.27% |           0      0.00%     60.27% |           0      0.00%     60.27% |           0      0.00%     60.27% |         994     17.72%     77.99% |           0      0.00%     77.99% |           0      0.00%     77.99% |           0      0.00%     77.99% |         643     11.46%     89.45% |           0      0.00%     89.45% |           0      0.00%     89.45% |           0      0.00%     89.45% |         592     10.55%    100.00% # Number of accesses per bank
system.ruby.dir_cntrl13.memBuffer.memBankCount::total         5611                       # Number of accesses per bank

system.ruby.dir_cntrl14.memBuffer.memReq         5897                       # Total number of memory requests
system.ruby.dir_cntrl14.memBuffer.memRead         4927                       # Number of memory reads
system.ruby.dir_cntrl14.memBuffer.memWrite          970                       # Number of memory writes
system.ruby.dir_cntrl14.memBuffer.memRefresh       107201                       # Number of memory refreshes
system.ruby.dir_cntrl14.memBuffer.memWaitCycles          826                       # Delay stalled at the head of the bank queue
system.ruby.dir_cntrl14.memBuffer.memBankQ           11                       # Delay behind the head of the bank queue
system.ruby.dir_cntrl14.memBuffer.totalStalls          837                       # Total number of stall cycles
system.ruby.dir_cntrl14.memBuffer.stallsPerReq     0.141937                       # Expected number of stall cycles per request
system.ruby.dir_cntrl14.memBuffer.memBankBusy          363                       # memory stalls due to busy bank
system.ruby.dir_cntrl14.memBuffer.memBusBusy          424                       # memory stalls due to busy bus
system.ruby.dir_cntrl14.memBuffer.memDataBusBusy            3                       # memory stalls due to read read turnaround
system.ruby.dir_cntrl14.memBuffer.memArbWait           36                       # memory stalls due to arbitration
system.ruby.dir_cntrl14.memBuffer.memBankCount |           0      0.00%      0.00% |           0      0.00%      0.00% |           0      0.00%      0.00% |         609     10.33%     10.33% |           0      0.00%     10.33% |           0      0.00%     10.33% |           0      0.00%     10.33% |         580      9.84%     20.16% |           0      0.00%     20.16% |           0      0.00%     20.16% |           0      0.00%     20.16% |         573      9.72%     29.88% |           0      0.00%     29.88% |           0      0.00%     29.88% |           0      0.00%     29.88% |         565      9.58%     39.46% |           0      0.00%     39.46% |           0      0.00%     39.46% |           0      0.00%     39.46% |        1194     20.25%     59.71% |           0      0.00%     59.71% |           0      0.00%     59.71% |           0      0.00%     59.71% |        1074     18.21%     77.92% |           0      0.00%     77.92% |           0      0.00%     77.92% |           0      0.00%     77.92% |         687     11.65%     89.57% |           0      0.00%     89.57% |           0      0.00%     89.57% |           0      0.00%     89.57% |         615     10.43%    100.00% # Number of accesses per bank
system.ruby.dir_cntrl14.memBuffer.memBankCount::total         5897                       # Number of accesses per bank

system.ruby.dir_cntrl15.memBuffer.memReq         5450                       # Total number of memory requests
system.ruby.dir_cntrl15.memBuffer.memRead         4640                       # Number of memory reads
system.ruby.dir_cntrl15.memBuffer.memWrite          810                       # Number of memory writes
system.ruby.dir_cntrl15.memBuffer.memRefresh       101907                       # Number of memory refreshes
system.ruby.dir_cntrl15.memBuffer.memWaitCycles          680                       # Delay stalled at the head of the bank queue
system.ruby.dir_cntrl15.memBuffer.memBankQ            4                       # Delay behind the head of the bank queue
system.ruby.dir_cntrl15.memBuffer.totalStalls          684                       # Total number of stall cycles
system.ruby.dir_cntrl15.memBuffer.stallsPerReq     0.125505                       # Expected number of stall cycles per request
system.ruby.dir_cntrl15.memBuffer.memBankBusy          272                       # memory stalls due to busy bank
system.ruby.dir_cntrl15.memBuffer.memBusBusy          386                       # memory stalls due to busy bus
system.ruby.dir_cntrl15.memBuffer.memArbWait           22                       # memory stalls due to arbitration
system.ruby.dir_cntrl15.memBuffer.memBankCount |           0      0.00%      0.00% |           0      0.00%      0.00% |           0      0.00%      0.00% |         575     10.55%     10.55% |           0      0.00%     10.55% |           0      0.00%     10.55% |           0      0.00%     10.55% |         550     10.09%     20.64% |           0      0.00%     20.64% |           0      0.00%     20.64% |           0      0.00%     20.64% |         560     10.28%     30.92% |           0      0.00%     30.92% |           0      0.00%     30.92% |           0      0.00%     30.92% |         650     11.93%     42.84% |           0      0.00%     42.84% |           0      0.00%     42.84% |           0      0.00%     42.84% |        1031     18.92%     61.76% |           0      0.00%     61.76% |           0      0.00%     61.76% |           0      0.00%     61.76% |         829     15.21%     76.97% |           0      0.00%     76.97% |           0      0.00%     76.97% |           0      0.00%     76.97% |         651     11.94%     88.92% |           0      0.00%     88.92% |           0      0.00%     88.92% |           0      0.00%     88.92% |         604     11.08%    100.00% # Number of accesses per bank
system.ruby.dir_cntrl15.memBuffer.memBankCount::total         5450                       # Number of accesses per bank

system.cpu00.workload.num_syscalls                152                       # Number of system calls
system.cpu00.numCycles                     2259012884                       # number of cpu cycles simulated
system.cpu00.numWorkItemsStarted                    0                       # number of work items this cpu started
system.cpu00.numWorkItemsCompleted                  0                       # number of work items this cpu completed
system.cpu00.committedInsts                 142301065                       # Number of instructions committed
system.cpu00.committedOps                   221790366                       # Number of ops (including micro ops) committed
system.cpu00.num_int_alu_accesses           190196319                       # Number of integer alu accesses
system.cpu00.num_fp_alu_accesses             72504424                       # Number of float alu accesses
system.cpu00.num_func_calls                   2556072                       # number of times a function call or return occured
system.cpu00.num_conditional_control_insts      9681266                       # number of instructions that are conditional controls
system.cpu00.num_int_insts                  190196319                       # number of integer instructions
system.cpu00.num_fp_insts                    72504424                       # number of float instructions
system.cpu00.num_int_register_reads         494006114                       # number of times the integer registers were read
system.cpu00.num_int_register_writes        155548002                       # number of times the integer registers were written
system.cpu00.num_fp_register_reads          105841309                       # number of times the floating registers were read
system.cpu00.num_fp_register_writes          56727355                       # number of times the floating registers were written
system.cpu00.num_mem_refs                    75529917                       # number of memory refs
system.cpu00.num_load_insts                  45442121                       # Number of load instructions
system.cpu00.num_store_insts                 30087796                       # Number of store instructions
system.cpu00.num_idle_cycles                        0                       # Number of idle cycles
system.cpu00.num_busy_cycles               2259012884                       # Number of busy cycles
system.cpu00.not_idle_fraction                      1                       # Percentage of non-idle cycles
system.cpu00.idle_fraction                          0                       # Percentage of idle cycles
system.cpu01.numCycles                     2258734258                       # number of cpu cycles simulated
system.cpu01.numWorkItemsStarted                    0                       # number of work items this cpu started
system.cpu01.numWorkItemsCompleted                  0                       # number of work items this cpu completed
system.cpu01.committedInsts                 124649955                       # Number of instructions committed
system.cpu01.committedOps                   191642350                       # Number of ops (including micro ops) committed
system.cpu01.num_int_alu_accesses           168800950                       # Number of integer alu accesses
system.cpu01.num_fp_alu_accesses             59044930                       # Number of float alu accesses
system.cpu01.num_func_calls                   1802110                       # number of times a function call or return occured
system.cpu01.num_conditional_control_insts      8885731                       # number of instructions that are conditional controls
system.cpu01.num_int_insts                  168800950                       # number of integer instructions
system.cpu01.num_fp_insts                    59044930                       # number of float instructions
system.cpu01.num_int_register_reads         445428410                       # number of times the integer registers were read
system.cpu01.num_int_register_writes        135213612                       # number of times the integer registers were written
system.cpu01.num_fp_register_reads           81790172                       # number of times the floating registers were read
system.cpu01.num_fp_register_writes          44940213                       # number of times the floating registers were written
system.cpu01.num_mem_refs                    69154952                       # number of memory refs
system.cpu01.num_load_insts                  41520677                       # Number of load instructions
system.cpu01.num_store_insts                 27634275                       # Number of store instructions
system.cpu01.num_idle_cycles             276361715.422464                       # Number of idle cycles
system.cpu01.num_busy_cycles             1982372542.577537                       # Number of busy cycles
system.cpu01.not_idle_fraction               0.877648                       # Percentage of non-idle cycles
system.cpu01.idle_fraction                   0.122352                       # Percentage of idle cycles
system.cpu02.numCycles                     2258733272                       # number of cpu cycles simulated
system.cpu02.numWorkItemsStarted                    0                       # number of work items this cpu started
system.cpu02.numWorkItemsCompleted                  0                       # number of work items this cpu completed
system.cpu02.committedInsts                 123325382                       # Number of instructions committed
system.cpu02.committedOps                   191028077                       # Number of ops (including micro ops) committed
system.cpu02.num_int_alu_accesses           167064394                       # Number of integer alu accesses
system.cpu02.num_fp_alu_accesses             61903368                       # Number of float alu accesses
system.cpu02.num_func_calls                   1921976                       # number of times a function call or return occured
system.cpu02.num_conditional_control_insts      7689069                       # number of instructions that are conditional controls
system.cpu02.num_int_insts                  167064394                       # number of integer instructions
system.cpu02.num_fp_insts                    61903368                       # number of float instructions
system.cpu02.num_int_register_reads         436665914                       # number of times the integer registers were read
system.cpu02.num_int_register_writes        131704858                       # number of times the integer registers were written
system.cpu02.num_fp_register_reads           85785902                       # number of times the floating registers were read
system.cpu02.num_fp_register_writes          47125909                       # number of times the floating registers were written
system.cpu02.num_mem_refs                    67914412                       # number of memory refs
system.cpu02.num_load_insts                  40329663                       # Number of load instructions
system.cpu02.num_store_insts                 27584749                       # Number of store instructions
system.cpu02.num_idle_cycles             276364056.478191                       # Number of idle cycles
system.cpu02.num_busy_cycles             1982369215.521809                       # Number of busy cycles
system.cpu02.not_idle_fraction               0.877646                       # Percentage of non-idle cycles
system.cpu02.idle_fraction                   0.122354                       # Percentage of idle cycles
system.cpu03.numCycles                     2258732564                       # number of cpu cycles simulated
system.cpu03.numWorkItemsStarted                    0                       # number of work items this cpu started
system.cpu03.numWorkItemsCompleted                  0                       # number of work items this cpu completed
system.cpu03.committedInsts                 122932164                       # Number of instructions committed
system.cpu03.committedOps                   190844062                       # Number of ops (including micro ops) committed
system.cpu03.num_int_alu_accesses           166297416                       # Number of integer alu accesses
system.cpu03.num_fp_alu_accesses             63387504                       # Number of float alu accesses
system.cpu03.num_func_calls                   1980128                       # number of times a function call or return occured
system.cpu03.num_conditional_control_insts      7111957                       # number of instructions that are conditional controls
system.cpu03.num_int_insts                  166297416                       # number of integer instructions
system.cpu03.num_fp_insts                    63387504                       # number of float instructions
system.cpu03.num_int_register_reads         432639213                       # number of times the integer registers were read
system.cpu03.num_int_register_writes        129989263                       # number of times the integer registers were written
system.cpu03.num_fp_register_reads           87853518                       # number of times the floating registers were read
system.cpu03.num_fp_register_writes          48259275                       # number of times the floating registers were written
system.cpu03.num_mem_refs                    67514453                       # number of memory refs
system.cpu03.num_load_insts                  39875192                       # Number of load instructions
system.cpu03.num_store_insts                 27639261                       # Number of store instructions
system.cpu03.num_idle_cycles             276366015.597983                       # Number of idle cycles
system.cpu03.num_busy_cycles             1982366548.402017                       # Number of busy cycles
system.cpu03.not_idle_fraction               0.877646                       # Percentage of non-idle cycles
system.cpu03.idle_fraction                   0.122354                       # Percentage of idle cycles
system.cpu04.numCycles                     2258732854                       # number of cpu cycles simulated
system.cpu04.numWorkItemsStarted                    0                       # number of work items this cpu started
system.cpu04.numWorkItemsCompleted                  0                       # number of work items this cpu completed
system.cpu04.committedInsts                 122515778                       # Number of instructions committed
system.cpu04.committedOps                   190426317                       # Number of ops (including micro ops) committed
system.cpu04.num_int_alu_accesses           165430552                       # Number of integer alu accesses
system.cpu04.num_fp_alu_accesses             64547207                       # Number of float alu accesses
system.cpu04.num_func_calls                   2009564                       # number of times a function call or return occured
system.cpu04.num_conditional_control_insts      6703435                       # number of instructions that are conditional controls
system.cpu04.num_int_insts                  165430552                       # number of integer instructions
system.cpu04.num_fp_insts                    64547207                       # number of float instructions
system.cpu04.num_int_register_reads         428997080                       # number of times the integer registers were read
system.cpu04.num_int_register_writes        128403989                       # number of times the integer registers were written
system.cpu04.num_fp_register_reads           89466896                       # number of times the floating registers were read
system.cpu04.num_fp_register_writes          49143787                       # number of times the floating registers were written
system.cpu04.num_mem_refs                    67174256                       # number of memory refs
system.cpu04.num_load_insts                  39549846                       # Number of load instructions
system.cpu04.num_store_insts                 27624410                       # Number of store instructions
system.cpu04.num_idle_cycles             276367098.950867                       # Number of idle cycles
system.cpu04.num_busy_cycles             1982365755.049133                       # Number of busy cycles
system.cpu04.not_idle_fraction               0.877645                       # Percentage of non-idle cycles
system.cpu04.idle_fraction                   0.122355                       # Percentage of idle cycles
system.cpu05.numCycles                     2258732184                       # number of cpu cycles simulated
system.cpu05.numWorkItemsStarted                    0                       # number of work items this cpu started
system.cpu05.numWorkItemsCompleted                  0                       # number of work items this cpu completed
system.cpu05.committedInsts                 122522428                       # Number of instructions committed
system.cpu05.committedOps                   190448648                       # Number of ops (including micro ops) committed
system.cpu05.num_int_alu_accesses           165519613                       # Number of integer alu accesses
system.cpu05.num_fp_alu_accesses             64376062                       # Number of float alu accesses
system.cpu05.num_func_calls                   2009584                       # number of times a function call or return occured
system.cpu05.num_conditional_control_insts      6738108                       # number of instructions that are conditional controls
system.cpu05.num_int_insts                  165519613                       # number of integer instructions
system.cpu05.num_fp_insts                    64376062                       # number of float instructions
system.cpu05.num_int_register_reads         429344352                       # number of times the integer registers were read
system.cpu05.num_int_register_writes        128593756                       # number of times the integer registers were written
system.cpu05.num_fp_register_reads           89230668                       # number of times the floating registers were read
system.cpu05.num_fp_register_writes          49013125                       # number of times the floating registers were written
system.cpu05.num_mem_refs                    67138505                       # number of memory refs
system.cpu05.num_load_insts                  39530011                       # Number of load instructions
system.cpu05.num_store_insts                 27608494                       # Number of store instructions
system.cpu05.num_idle_cycles             276369024.723555                       # Number of idle cycles
system.cpu05.num_busy_cycles             1982363159.276445                       # Number of busy cycles
system.cpu05.not_idle_fraction               0.877644                       # Percentage of non-idle cycles
system.cpu05.idle_fraction                   0.122356                       # Percentage of idle cycles
system.cpu06.numCycles                     2258733152                       # number of cpu cycles simulated
system.cpu06.numWorkItemsStarted                    0                       # number of work items this cpu started
system.cpu06.numWorkItemsCompleted                  0                       # number of work items this cpu completed
system.cpu06.committedInsts                 122839713                       # Number of instructions committed
system.cpu06.committedOps                   190806457                       # Number of ops (including micro ops) committed
system.cpu06.num_int_alu_accesses           166076859                       # Number of integer alu accesses
system.cpu06.num_fp_alu_accesses             63866921                       # Number of float alu accesses
system.cpu06.num_func_calls                   1987594                       # number of times a function call or return occured
system.cpu06.num_conditional_control_insts      6991456                       # number of instructions that are conditional controls
system.cpu06.num_int_insts                  166076859                       # number of integer instructions
system.cpu06.num_fp_insts                    63866921                       # number of float instructions
system.cpu06.num_int_register_reads         431613672                       # number of times the integer registers were read
system.cpu06.num_int_register_writes        129504303                       # number of times the integer registers were written
system.cpu06.num_fp_register_reads           88519675                       # number of times the floating registers were read
system.cpu06.num_fp_register_writes          48623886                       # number of times the floating registers were written
system.cpu06.num_mem_refs                    67420090                       # number of memory refs
system.cpu06.num_load_insts                  39795720                       # Number of load instructions
system.cpu06.num_store_insts                 27624370                       # Number of store instructions
system.cpu06.num_idle_cycles             276369513.118170                       # Number of idle cycles
system.cpu06.num_busy_cycles             1982363638.881830                       # Number of busy cycles
system.cpu06.not_idle_fraction               0.877644                       # Percentage of non-idle cycles
system.cpu06.idle_fraction                   0.122356                       # Percentage of idle cycles
system.cpu07.numCycles                     2258732800                       # number of cpu cycles simulated
system.cpu07.numWorkItemsStarted                    0                       # number of work items this cpu started
system.cpu07.numWorkItemsCompleted                  0                       # number of work items this cpu completed
system.cpu07.committedInsts                 124505654                       # Number of instructions committed
system.cpu07.committedOps                   191423600                       # Number of ops (including micro ops) committed
system.cpu07.num_int_alu_accesses           168785496                       # Number of integer alu accesses
system.cpu07.num_fp_alu_accesses             58521482                       # Number of float alu accesses
system.cpu07.num_func_calls                   1780752                       # number of times a function call or return occured
system.cpu07.num_conditional_control_insts      9046721                       # number of instructions that are conditional controls
system.cpu07.num_int_insts                  168785496                       # number of integer instructions
system.cpu07.num_fp_insts                    58521482                       # number of float instructions
system.cpu07.num_int_register_reads         446049586                       # number of times the integer registers were read
system.cpu07.num_int_register_writes        135524284                       # number of times the integer registers were written
system.cpu07.num_fp_register_reads           81070859                       # number of times the floating registers were read
system.cpu07.num_fp_register_writes          44543201                       # number of times the floating registers were written
system.cpu07.num_mem_refs                    69147480                       # number of memory refs
system.cpu07.num_load_insts                  41578882                       # Number of load instructions
system.cpu07.num_store_insts                 27568598                       # Number of store instructions
system.cpu07.num_idle_cycles             276371159.839329                       # Number of idle cycles
system.cpu07.num_busy_cycles             1982361640.160671                       # Number of busy cycles
[...]
system.ruby.dir_cntrl0.GETX::total              65398                      

system.ruby.dir_cntrl0.GETS              |        1020      7.89%      7.89% |         644      4.98%     12.87% |         913      7.06%     19.94% |         696      5.38%     25.32% |         844      6.53%     31.85% |         647      5.01%     36.85% |         947      7.33%     44.18% |         656      5.07%     49.25% |        1020      7.89%     57.14% |         657      5.08%     62.23% |         925      7.16%     69.38% |         643      4.97%     74.36% |        1120      8.66%     83.02% |         668      5.17%     88.19% |         918      7.10%     95.29% |         609      4.71%    100.00%
system.ruby.dir_cntrl0.GETS::total              12927                      

system.ruby.dir_cntrl0.PUTX              |        1438      7.76%      7.76% |        1035      5.58%     13.34% |        1269      6.84%     20.18% |        1050      5.66%     25.85% |        1215      6.55%     32.40% |         973      5.25%     37.65% |        1327      7.16%     44.81% |        1029      5.55%     50.36% |        1404      7.57%     57.93% |         997      5.38%     63.31% |        1285      6.93%     70.24% |         961      5.18%     75.42% |        1451      7.83%     83.25% |        1006      5.43%     88.67% |        1210      6.53%     95.20% |         890      4.80%    100.00%
system.ruby.dir_cntrl0.PUTX::total              18540                      

system.ruby.dir_cntrl0.PUTO_SHARERS      |           1     20.00%     20.00% |           1     20.00%     40.00% |           0      0.00%     40.00% |           0      0.00%     40.00% |           0      0.00%     40.00% |           0      0.00%     40.00% |           0      0.00%     40.00% |           0      0.00%     40.00% |           1     20.00%     60.00% |           0      0.00%     60.00% |           0      0.00%     60.00% |           1     20.00%     80.00% |           1     20.00%    100.00% |           0      0.00%    100.00% |           0      0.00%    100.00% |           0      0.00%    100.00%
system.ruby.dir_cntrl0.PUTO_SHARERS::total            5                      

system.ruby.dir_cntrl0.Last_Unblock      |           0      0.00%      0.00% |           0      0.00%      0.00% |           0      0.00%      0.00% |           0      0.00%      0.00% |           0      0.00%      0.00% |           0      0.00%      0.00% |           0      0.00%      0.00% |           0      0.00%      0.00% |           2     50.00%     50.00% |           0      0.00%     50.00% |           0      0.00%     50.00% |           0      0.00%     50.00% |           2     50.00%    100.00% |           0      0.00%    100.00% |           0      0.00%    100.00% |           0      0.00%    100.00%
system.ruby.dir_cntrl0.Last_Unblock::total            4                      

system.ruby.dir_cntrl0.Exclusive_Unblock |        5216      6.66%      6.66% |        4803      6.13%     12.79% |        5023      6.41%     19.21% |        4801      6.13%     25.34% |        4956      6.33%     31.66% |        4716      6.02%     37.68% |        5071      6.47%     44.16% |        4758      6.07%     50.23% |        5134      6.56%     56.79% |        4720      6.03%     62.82% |        4998      6.38%     69.20% |        4674      5.97%     75.17% |        5170      6.60%     81.77% |        4714      6.02%     87.78% |        4927      6.29%     94.08% |        4640      5.92%    100.00%
system.ruby.dir_cntrl0.Exclusive_Unblock::total        78321                      

system.ruby.dir_cntrl0.Clean_Writeback   |         293      9.74%      9.74% |          98      3.26%     13.00% |         241      8.01%     21.02% |          87      2.89%     23.91% |         228      7.58%     31.49% |          92      3.06%     34.55% |         264      8.78%     43.33% |         104      3.46%     46.79% |         306     10.18%     56.97% |         109      3.62%     60.59% |         296      9.84%     70.44% |         114      3.79%     74.23% |         346     11.51%     85.73% |         109      3.62%     89.36% |         240      7.98%     97.34% |          80      2.66%    100.00%
system.ruby.dir_cntrl0.Clean_Writeback::total         3007                      

system.ruby.dir_cntrl0.Dirty_Writeback   |        1146      7.38%      7.38% |         938      6.04%     13.41% |        1028      6.62%     20.03% |         963      6.20%     26.23% |         987      6.35%     32.58% |         881      5.67%     38.25% |        1063      6.84%     45.09% |         925      5.95%     51.04% |        1099      7.07%     58.12% |         888      5.72%     63.83% |         989      6.37%     70.20% |         848      5.46%     75.65% |        1106      7.12%     82.77% |         897      5.77%     88.54% |         970      6.24%     94.79% |         810      5.21%    100.00%
system.ruby.dir_cntrl0.Dirty_Writeback::total        15538                      

system.ruby.dir_cntrl0.Memory_Data       |        5216      6.66%      6.66% |        4803      6.13%     12.79% |        5023      6.41%     19.20% |        4801      6.13%     25.33% |        4956      6.33%     31.66% |        4716      6.02%     37.68% |        5071      6.47%     44.16% |        4758      6.07%     50.23% |        5136      6.56%     56.79% |        4720      6.03%     62.82% |        4998      6.38%     69.20% |        4674      5.97%     75.16% |        5172      6.60%     81.77% |        4714      6.02%     87.79% |        4927      6.29%     94.08% |        4640      5.92%    100.00%
system.ruby.dir_cntrl0.Memory_Data::total        78325                      

system.ruby.dir_cntrl0.Memory_Ack        |        1146      7.38%      7.38% |         938      6.04%     13.41% |        1028      6.62%     20.03% |         963      6.20%     26.23% |         987      6.35%     32.58% |         881      5.67%     38.25% |        1063      6.84%     45.09% |         925      5.95%     51.04% |        1099      7.07%     58.12% |         888      5.72%     63.83% |         989      6.37%     70.20% |         848      5.46%     75.65% |        1106      7.12%     82.77% |         897      5.77%     88.54% |         970      6.24%     94.79% |         810      5.21%    100.00%
system.ruby.dir_cntrl0.Memory_Ack::total        15538                      

system.ruby.dir_cntrl0.I.GETX            |        4195      6.41%      6.41% |        4159      6.36%     12.77% |        4110      6.28%     19.06% |        4105      6.28%     25.34% |        4112      6.29%     31.62% |        4069      6.22%     37.85% |        4124      6.31%     44.15% |        4102      6.27%     50.43% |        4116      6.29%     56.72% |        4063      6.21%     62.93% |        4073      6.23%     69.16% |        4031      6.16%     75.32% |        4051      6.19%     81.52% |        4046      6.19%     87.71% |        4009      6.13%     93.84% |        4031      6.16%    100.00%
system.ruby.dir_cntrl0.I.GETX::total            65396                      

system.ruby.dir_cntrl0.I.GETS            |        1020      7.89%      7.89% |         644      4.98%     12.88% |         913      7.06%     19.94% |         696      5.39%     25.33% |         844      6.53%     31.86% |         647      5.01%     36.86% |         947      7.33%     44.19% |         656      5.08%     49.27% |        1018      7.88%     57.15% |         657      5.08%     62.23% |         925      7.16%     69.39% |         643      4.98%     74.36% |        1118      8.65%     83.01% |         668      5.17%     88.18% |         918      7.10%     95.29% |         609      4.71%    100.00%
system.ruby.dir_cntrl0.I.GETS::total            12923                      

system.ruby.dir_cntrl0.I.Memory_Ack      |        1145      7.37%      7.37% |         937      6.03%     13.40% |        1028      6.62%     20.02% |         963      6.20%     26.22% |         986      6.35%     32.57% |         881      5.67%     38.24% |        1063      6.84%     45.08% |         925      5.95%     51.04% |        1099      7.07%     58.11% |         888      5.72%     63.83% |         989      6.37%     70.19% |         847      5.45%     75.65% |        1106      7.12%     82.77% |         897      5.77%     88.54% |         970      6.24%     94.79% |         810      5.21%    100.00%
system.ruby.dir_cntrl0.I.Memory_Ack::total        15534                      

system.ruby.dir_cntrl0.S.GETX            |           1     50.00%     50.00% |           0      0.00%     50.00% |           0      0.00%     50.00% |           0      0.00%     50.00% |           0      0.00%     50.00% |           0      0.00%     50.00% |           0      0.00%     50.00% |           0      0.00%     50.00% |           0      0.00%     50.00% |           0      0.00%     50.00% |           0      0.00%     50.00% |           0      0.00%     50.00% |           1     50.00%    100.00% |           0      0.00%    100.00% |           0      0.00%    100.00% |           0      0.00%    100.00%
system.ruby.dir_cntrl0.S.GETX::total                2                      

system.ruby.dir_cntrl0.S.GETS            |           0      0.00%      0.00% |           0      0.00%      0.00% |           0      0.00%      0.00% |           0      0.00%      0.00% |           0      0.00%      0.00% |           0      0.00%      0.00% |           0      0.00%      0.00% |           0      0.00%      0.00% |           2     50.00%     50.00% |           0      0.00%     50.00% |           0      0.00%     50.00% |           0      0.00%     50.00% |           2     50.00%    100.00% |           0      0.00%    100.00% |           0      0.00%    100.00% |           0      0.00%    100.00%
system.ruby.dir_cntrl0.S.GETS::total                4                      

system.ruby.dir_cntrl0.S.Memory_Ack      |           1     33.33%     33.33% |           1     33.33%     66.67% |           0      0.00%     66.67% |           0      0.00%     66.67% |           0      0.00%     66.67% |           0      0.00%     66.67% |           0      0.00%     66.67% |           0      0.00%     66.67% |           0      0.00%     66.67% |           0      0.00%     66.67% |           0      0.00%     66.67% |           1     33.33%    100.00% |           0      0.00%    100.00% |           0      0.00%    100.00% |           0      0.00%    100.00% |           0      0.00%    100.00%
system.ruby.dir_cntrl0.S.Memory_Ack::total            3                      

system.ruby.dir_cntrl0.M.PUTX            |        1438      7.76%      7.76% |        1035      5.58%     13.34% |        1269      6.84%     20.18% |        1050      5.66%     25.85% |        1215      6.55%     32.40% |         973      5.25%     37.65% |        1327      7.16%     44.81% |        1029      5.55%     50.36% |        1404      7.57%     57.93% |         997      5.38%     63.31% |        1285      6.93%     70.24% |         961      5.18%     75.42% |        1451      7.83%     83.25% |        1006      5.43%     88.67% |        1210      6.53%     95.20% |         890      4.80%    100.00%
system.ruby.dir_cntrl0.M.PUTX::total            18540                      

system.ruby.dir_cntrl0.M.PUTO_SHARERS    |           1     20.00%     20.00% |           1     20.00%     40.00% |           0      0.00%     40.00% |           0      0.00%     40.00% |           0      0.00%     40.00% |           0      0.00%     40.00% |           0      0.00%     40.00% |           0      0.00%     40.00% |           1     20.00%     60.00% |           0      0.00%     60.00% |           0      0.00%     60.00% |           1     20.00%     80.00% |           1     20.00%    100.00% |           0      0.00%    100.00% |           0      0.00%    100.00% |           0      0.00%    100.00%
system.ruby.dir_cntrl0.M.PUTO_SHARERS::total            5                      

system.ruby.dir_cntrl0.IS.Exclusive_Unblock |        1020      7.89%      7.89% |         644      4.98%     12.88% |         913      7.06%     19.94% |         696      5.39%     25.33% |         844      6.53%     31.86% |         647      5.01%     36.86% |         947      7.33%     44.19% |         656      5.08%     49.27% |        1018      7.88%     57.15% |         657      5.08%     62.23% |         925      7.16%     69.39% |         643      4.98%     74.36% |        1118      8.65%     83.01% |         668      5.17%     88.18% |         918      7.10%     95.29% |         609      4.71%    100.00%
system.ruby.dir_cntrl0.IS.Exclusive_Unblock::total        12923                      

system.ruby.dir_cntrl0.IS.Memory_Data    |        1020      7.89%      7.89% |         644      4.98%     12.88% |         913      7.06%     19.94% |         696      5.39%     25.33% |         844      6.53%     31.86% |         647      5.01%     36.86% |         947      7.33%     44.19% |         656      5.08%     49.27% |        1018      7.88%     57.15% |         657      5.08%     62.23% |         925      7.16%     69.39% |         643      4.98%     74.36% |        1118      8.65%     83.01% |         668      5.17%     88.18% |         918      7.10%     95.29% |         609      4.71%    100.00%
system.ruby.dir_cntrl0.IS.Memory_Data::total        12923                      

system.ruby.dir_cntrl0.IS.Memory_Ack     |           0      0.00%      0.00% |           0      0.00%      0.00% |           0      0.00%      0.00% |           0      0.00%      0.00% |           1    100.00%    100.00% |           0      0.00%    100.00% |           0      0.00%    100.00% |           0      0.00%    100.00% |           0      0.00%    100.00% |           0      0.00%    100.00% |           0      0.00%    100.00% |           0      0.00%    100.00% |           0      0.00%    100.00% |           0      0.00%    100.00% |           0      0.00%    100.00% |           0      0.00%    100.00%
system.ruby.dir_cntrl0.IS.Memory_Ack::total            1                      

system.ruby.dir_cntrl0.SS.Last_Unblock   |           0      0.00%      0.00% |           0      0.00%      0.00% |           0      0.00%      0.00% |           0      0.00%      0.00% |           0      0.00%      0.00% |           0      0.00%      0.00% |           0      0.00%      0.00% |           0      0.00%      0.00% |           2     50.00%     50.00% |           0      0.00%     50.00% |           0      0.00%     50.00% |           0      0.00%     50.00% |           2     50.00%    100.00% |           0      0.00%    100.00% |           0      0.00%    100.00% |           0      0.00%    100.00%
system.ruby.dir_cntrl0.SS.Last_Unblock::total            4                      

system.ruby.dir_cntrl0.SS.Memory_Data    |           0      0.00%      0.00% |           0      0.00%      0.00% |           0      0.00%      0.00% |           0      0.00%      0.00% |           0      0.00%      0.00% |           0      0.00%      0.00% |           0      0.00%      0.00% |           0      0.00%      0.00% |           2     50.00%     50.00% |           0      0.00%     50.00% |           0      0.00%     50.00% |           0      0.00%     50.00% |           2     50.00%    100.00% |           0      0.00%    100.00% |           0      0.00%    100.00% |           0      0.00%    100.00%
system.ruby.dir_cntrl0.SS.Memory_Data::total            4                      

system.ruby.dir_cntrl0.MM.Exclusive_Unblock |        4196      6.42%      6.42% |        4159      6.36%     12.78% |        4110      6.28%     19.06% |        4105      6.28%     25.34% |        4112      6.29%     31.62% |        4069      6.22%     37.85% |        4124      6.31%     44.15% |        4102      6.27%     50.43% |        4116      6.29%     56.72% |        4063      6.21%     62.93% |        4073      6.23%     69.16% |        4031      6.16%     75.32% |        4052      6.20%     81.52% |        4046      6.19%     87.71% |        4009      6.13%     93.84% |        4031      6.16%    100.00%
system.ruby.dir_cntrl0.MM.Exclusive_Unblock::total        65398                      

system.ruby.dir_cntrl0.MM.Memory_Data    |        4196      6.42%      6.42% |        4159      6.36%     12.78% |        4110      6.28%     19.06% |        4105      6.28%     25.34% |        4112      6.29%     31.62% |        4069      6.22%     37.85% |        4124      6.31%     44.15% |        4102      6.27%     50.43% |        4116      6.29%     56.72% |        4063      6.21%     62.93% |        4073      6.23%     69.16% |        4031      6.16%     75.32% |        4052      6.20%     81.52% |        4046      6.19%     87.71% |        4009      6.13%     93.84% |        4031      6.16%    100.00%
system.ruby.dir_cntrl0.MM.Memory_Data::total        65398                      

system.ruby.dir_cntrl0.MI.Clean_Writeback |         293      9.75%      9.75% |          98      3.26%     13.01% |         241      8.02%     21.03% |          87      2.90%     23.93% |         228      7.59%     31.51% |          92      3.06%     34.58% |         264      8.79%     43.36% |         104      3.46%     46.82% |         305     10.15%     56.97% |         109      3.63%     60.60% |         296      9.85%     70.45% |         114      3.79%     74.24% |         345     11.48%     85.72% |         109      3.63%     89.35% |         240      7.99%     97.34% |          80      2.66%    100.00%
system.ruby.dir_cntrl0.MI.Clean_Writeback::total         3005                      

system.ruby.dir_cntrl0.MI.Dirty_Writeback |        1145      7.37%      7.37% |         937      6.03%     13.40% |        1028      6.62%     20.02% |         963      6.20%     26.22% |         987      6.35%     32.57% |         881      5.67%     38.24% |        1063      6.84%     45.09% |         925      5.95%     51.04% |        1099      7.07%     58.11% |         888      5.72%     63.83% |         989      6.37%     70.20% |         847      5.45%     75.65% |        1106      7.12%     82.77% |         897      5.77%     88.54% |         970      6.24%     94.79% |         810      5.21%    100.00%
system.ruby.dir_cntrl0.MI.Dirty_Writeback::total        15535                      

system.ruby.dir_cntrl0.MIS.Clean_Writeback |           0      0.00%      0.00% |           0      0.00%      0.00% |           0      0.00%      0.00% |           0      0.00%      0.00% |           0      0.00%      0.00% |           0      0.00%      0.00% |           0      0.00%      0.00% |           0      0.00%      0.00% |           1     50.00%     50.00% |           0      0.00%     50.00% |           0      0.00%     50.00% |           0      0.00%     50.00% |           1     50.00%    100.00% |           0      0.00%    100.00% |           0      0.00%    100.00% |           0      0.00%    100.00%
system.ruby.dir_cntrl0.MIS.Clean_Writeback::total            2                      

system.ruby.dir_cntrl0.MIS.Dirty_Writeback |           1     33.33%     33.33% |           1     33.33%     66.67% |           0      0.00%     66.67% |           0      0.00%     66.67% |           0      0.00%     66.67% |           0      0.00%     66.67% |           0      0.00%     66.67% |           0      0.00%     66.67% |           0      0.00%     66.67% |           0      0.00%     66.67% |           0      0.00%     66.67% |           1     33.33%    100.00% |           0      0.00%    100.00% |           0      0.00%    100.00% |           0      0.00%    100.00% |           0      0.00%    100.00%
system.ruby.dir_cntrl0.MIS.Dirty_Writeback::total            3                      


---------- End Simulation Statistics   ----------
