
---------- Begin Simulation Statistics ----------
sim_seconds                                  0.065160                       # Number of seconds simulated
sim_ticks                                 65160081000                       # Number of ticks simulated
final_tick                                65160081000                       # Number of ticks from beginning of simulation (restored from checkpoints and never reset)
sim_freq                                 1000000000000                       # Frequency of simulated ticks
host_inst_rate                                 118041                       # Simulator instruction rate (inst/s)
host_op_rate                                   118041                       # Simulator op (including micro ops) rate (op/s)
host_tick_rate                               13133687                       # Simulator tick rate (ticks/s)
host_mem_usage                                 370408                       # Number of bytes of host memory used
host_seconds                                  4961.29                       # Real time elapsed on the host
sim_insts                                   585637501                       # Number of instructions simulated
sim_ops                                     585637501                       # Number of ops (including micro ops) simulated
system.physmem.bytes_read::cpu0.inst           234048                       # Number of bytes read from this memory
system.physmem.bytes_read::cpu0.data          1510976                       # Number of bytes read from this memory
system.physmem.bytes_read::cpu1.inst            20736                       # Number of bytes read from this memory
system.physmem.bytes_read::cpu1.data           794368                       # Number of bytes read from this memory
system.physmem.bytes_read::cpu2.inst             7360                       # Number of bytes read from this memory
system.physmem.bytes_read::cpu2.data           805120                       # Number of bytes read from this memory
system.physmem.bytes_read::cpu3.inst            10944                       # Number of bytes read from this memory
system.physmem.bytes_read::cpu3.data           810432                       # Number of bytes read from this memory
system.physmem.bytes_read::total              4193984                       # Number of bytes read from this memory
system.physmem.bytes_inst_read::cpu0.inst       234048                       # Number of instructions bytes read from this memory
system.physmem.bytes_inst_read::cpu1.inst        20736                       # Number of instructions bytes read from this memory
system.physmem.bytes_inst_read::cpu2.inst         7360                       # Number of instructions bytes read from this memory
system.physmem.bytes_inst_read::cpu3.inst        10944                       # Number of instructions bytes read from this memory
system.physmem.bytes_inst_read::total          273088                       # Number of instructions bytes read from this memory
system.physmem.bytes_written::writebacks      2584448                       # Number of bytes written to this memory
system.physmem.bytes_written::total           2584448                       # Number of bytes written to this memory
system.physmem.num_reads::cpu0.inst              3657                       # Number of read requests responded to by this memory
system.physmem.num_reads::cpu0.data             23609                       # Number of read requests responded to by this memory
system.physmem.num_reads::cpu1.inst               324                       # Number of read requests responded to by this memory
system.physmem.num_reads::cpu1.data             12412                       # Number of read requests responded to by this memory
system.physmem.num_reads::cpu2.inst               115                       # Number of read requests responded to by this memory
system.physmem.num_reads::cpu2.data             12580                       # Number of read requests responded to by this memory
system.physmem.num_reads::cpu3.inst               171                       # Number of read requests responded to by this memory
system.physmem.num_reads::cpu3.data             12663                       # Number of read requests responded to by this memory
system.physmem.num_reads::total                 65531                       # Number of read requests responded to by this memory
system.physmem.num_writes::writebacks           40382                       # Number of write requests responded to by this memory
system.physmem.num_writes::total                40382                       # Number of write requests responded to by this memory
system.physmem.bw_read::cpu0.inst             3591892                       # Total read bandwidth from this memory (bytes/s)
system.physmem.bw_read::cpu0.data            23188676                       # Total read bandwidth from this memory (bytes/s)
system.physmem.bw_read::cpu1.inst              318232                       # Total read bandwidth from this memory (bytes/s)
system.physmem.bw_read::cpu1.data            12191022                       # Total read bandwidth from this memory (bytes/s)
system.physmem.bw_read::cpu2.inst              112953                       # Total read bandwidth from this memory (bytes/s)
system.physmem.bw_read::cpu2.data            12356031                       # Total read bandwidth from this memory (bytes/s)
system.physmem.bw_read::cpu3.inst              167956                       # Total read bandwidth from this memory (bytes/s)
system.physmem.bw_read::cpu3.data            12437554                       # Total read bandwidth from this memory (bytes/s)
system.physmem.bw_read::total                64364315                       # Total read bandwidth from this memory (bytes/s)
system.physmem.bw_inst_read::cpu0.inst        3591892                       # Instruction read bandwidth from this memory (bytes/s)
system.physmem.bw_inst_read::cpu1.inst         318232                       # Instruction read bandwidth from this memory (bytes/s)
system.physmem.bw_inst_read::cpu2.inst         112953                       # Instruction read bandwidth from this memory (bytes/s)
system.physmem.bw_inst_read::cpu3.inst         167956                       # Instruction read bandwidth from this memory (bytes/s)
system.physmem.bw_inst_read::total            4191032                       # Instruction read bandwidth from this memory (bytes/s)
system.physmem.bw_write::writebacks          39663057                       # Write bandwidth from this memory (bytes/s)
system.physmem.bw_write::total               39663057                       # Write bandwidth from this memory (bytes/s)
system.physmem.bw_total::writebacks          39663057                       # Total bandwidth to/from this memory (bytes/s)
system.physmem.bw_total::cpu0.inst            3591892                       # Total bandwidth to/from this memory (bytes/s)
system.physmem.bw_total::cpu0.data           23188676                       # Total bandwidth to/from this memory (bytes/s)
system.physmem.bw_total::cpu1.inst             318232                       # Total bandwidth to/from this memory (bytes/s)
system.physmem.bw_total::cpu1.data           12191022                       # Total bandwidth to/from this memory (bytes/s)
system.physmem.bw_total::cpu2.inst             112953                       # Total bandwidth to/from this memory (bytes/s)
system.physmem.bw_total::cpu2.data           12356031                       # Total bandwidth to/from this memory (bytes/s)
system.physmem.bw_total::cpu3.inst             167956                       # Total bandwidth to/from this memory (bytes/s)
system.physmem.bw_total::cpu3.data           12437554                       # Total bandwidth to/from this memory (bytes/s)
system.physmem.bw_total::total              104027372                       # Total bandwidth to/from this memory (bytes/s)
workload.num_syscalls                             806                       # Number of system calls
system.l2.replacements                          62191                       # number of replacements
system.l2.tagsinuse                       3681.047126                       # Cycle average of tags in use
system.l2.total_refs                          1065419                       # Total number of references to valid blocks.
system.l2.sampled_refs                          66166                       # Sample count of references to valid blocks.
system.l2.avg_refs                          16.102213                       # Average number of references to valid blocks.
system.l2.warmup_cycle                    33381496000                       # Cycle when the warmup percentage was hit.
system.l2.occ_blocks::writebacks           706.712339                       # Average occupied blocks per requestor
system.l2.occ_blocks::cpu0.inst            155.343357                       # Average occupied blocks per requestor
system.l2.occ_blocks::cpu0.data            762.548685                       # Average occupied blocks per requestor
system.l2.occ_blocks::cpu1.inst             21.228630                       # Average occupied blocks per requestor
system.l2.occ_blocks::cpu1.data            632.112114                       # Average occupied blocks per requestor
system.l2.occ_blocks::cpu2.inst              7.426603                       # Average occupied blocks per requestor
system.l2.occ_blocks::cpu2.data            670.694845                       # Average occupied blocks per requestor
system.l2.occ_blocks::cpu3.inst             19.915738                       # Average occupied blocks per requestor
system.l2.occ_blocks::cpu3.data            705.064815                       # Average occupied blocks per requestor
system.l2.occ_percent::writebacks            0.172537                       # Average percentage of cache occupancy
system.l2.occ_percent::cpu0.inst             0.037926                       # Average percentage of cache occupancy
system.l2.occ_percent::cpu0.data             0.186169                       # Average percentage of cache occupancy
system.l2.occ_percent::cpu1.inst             0.005183                       # Average percentage of cache occupancy
system.l2.occ_percent::cpu1.data             0.154324                       # Average percentage of cache occupancy
system.l2.occ_percent::cpu2.inst             0.001813                       # Average percentage of cache occupancy
system.l2.occ_percent::cpu2.data             0.163744                       # Average percentage of cache occupancy
system.l2.occ_percent::cpu3.inst             0.004862                       # Average percentage of cache occupancy
system.l2.occ_percent::cpu3.data             0.172135                       # Average percentage of cache occupancy
system.l2.occ_percent::total                 0.898693                       # Average percentage of cache occupancy
system.l2.ReadReq_hits::cpu0.inst              421682                       # number of ReadReq hits
system.l2.ReadReq_hits::cpu0.data              149213                       # number of ReadReq hits
system.l2.ReadReq_hits::cpu1.inst                 737                       # number of ReadReq hits
system.l2.ReadReq_hits::cpu1.data              120971                       # number of ReadReq hits
system.l2.ReadReq_hits::cpu2.inst                1387                       # number of ReadReq hits
system.l2.ReadReq_hits::cpu2.data              124402                       # number of ReadReq hits
system.l2.ReadReq_hits::cpu3.inst                 842                       # number of ReadReq hits
system.l2.ReadReq_hits::cpu3.data              113061                       # number of ReadReq hits
system.l2.ReadReq_hits::total                  932295                       # number of ReadReq hits
system.l2.Writeback_hits::writebacks           146560                       # number of Writeback hits
system.l2.Writeback_hits::total                146560                       # number of Writeback hits
system.l2.UpgradeReq_hits::cpu0.data               67                       # number of UpgradeReq hits
system.l2.UpgradeReq_hits::cpu1.data               34                       # number of UpgradeReq hits
system.l2.UpgradeReq_hits::cpu2.data               61                       # number of UpgradeReq hits
system.l2.UpgradeReq_hits::cpu3.data               73                       # number of UpgradeReq hits
system.l2.UpgradeReq_hits::total                  235                       # number of UpgradeReq hits
system.l2.SCUpgradeReq_hits::cpu0.data              2                       # number of SCUpgradeReq hits
system.l2.SCUpgradeReq_hits::cpu3.data              4                       # number of SCUpgradeReq hits
system.l2.SCUpgradeReq_hits::total                  6                       # number of SCUpgradeReq hits
system.l2.ReadExReq_hits::cpu0.data              1025                       # number of ReadExReq hits
system.l2.ReadExReq_hits::cpu1.data               329                       # number of ReadExReq hits
system.l2.ReadExReq_hits::cpu2.data               840                       # number of ReadExReq hits
system.l2.ReadExReq_hits::cpu3.data               501                       # number of ReadExReq hits
system.l2.ReadExReq_hits::total                  2695                       # number of ReadExReq hits
system.l2.demand_hits::cpu0.inst               421682                       # number of demand (read+write) hits
system.l2.demand_hits::cpu0.data               150238                       # number of demand (read+write) hits
system.l2.demand_hits::cpu1.inst                  737                       # number of demand (read+write) hits
system.l2.demand_hits::cpu1.data               121300                       # number of demand (read+write) hits
system.l2.demand_hits::cpu2.inst                 1387                       # number of demand (read+write) hits
system.l2.demand_hits::cpu2.data               125242                       # number of demand (read+write) hits
system.l2.demand_hits::cpu3.inst                  842                       # number of demand (read+write) hits
system.l2.demand_hits::cpu3.data               113562                       # number of demand (read+write) hits
system.l2.demand_hits::total                   934990                       # number of demand (read+write) hits
system.l2.overall_hits::cpu0.inst              421682                       # number of overall hits
system.l2.overall_hits::cpu0.data              150238                       # number of overall hits
system.l2.overall_hits::cpu1.inst                 737                       # number of overall hits
system.l2.overall_hits::cpu1.data              121300                       # number of overall hits
system.l2.overall_hits::cpu2.inst                1387                       # number of overall hits
system.l2.overall_hits::cpu2.data              125242                       # number of overall hits
system.l2.overall_hits::cpu3.inst                 842                       # number of overall hits
system.l2.overall_hits::cpu3.data              113562                       # number of overall hits
system.l2.overall_hits::total                  934990                       # number of overall hits
system.l2.ReadReq_misses::cpu0.inst              3693                       # number of ReadReq misses
system.l2.ReadReq_misses::cpu0.data             14448                       # number of ReadReq misses
system.l2.ReadReq_misses::cpu1.inst               423                       # number of ReadReq misses
system.l2.ReadReq_misses::cpu1.data             11301                       # number of ReadReq misses
system.l2.ReadReq_misses::cpu2.inst               182                       # number of ReadReq misses
system.l2.ReadReq_misses::cpu2.data             11462                       # number of ReadReq misses
system.l2.ReadReq_misses::cpu3.inst               261                       # number of ReadReq misses
system.l2.ReadReq_misses::cpu3.data             11566                       # number of ReadReq misses
system.l2.ReadReq_misses::total                 53336                       # number of ReadReq misses
system.l2.UpgradeReq_misses::cpu0.data              3                       # number of UpgradeReq misses
system.l2.UpgradeReq_misses::cpu2.data              2                       # number of UpgradeReq misses
system.l2.UpgradeReq_misses::cpu3.data              1                       # number of UpgradeReq misses
system.l2.UpgradeReq_misses::total                  6                       # number of UpgradeReq misses
system.l2.SCUpgradeReq_misses::cpu0.data            6                       # number of SCUpgradeReq misses
system.l2.SCUpgradeReq_misses::cpu2.data            1                       # number of SCUpgradeReq misses
system.l2.SCUpgradeReq_misses::cpu3.data           12                       # number of SCUpgradeReq misses
system.l2.SCUpgradeReq_misses::total               19                       # number of SCUpgradeReq misses
system.l2.ReadExReq_misses::cpu0.data            9180                       # number of ReadExReq misses
system.l2.ReadExReq_misses::cpu1.data            1153                       # number of ReadExReq misses
system.l2.ReadExReq_misses::cpu2.data            1151                       # number of ReadExReq misses
system.l2.ReadExReq_misses::cpu3.data            1156                       # number of ReadExReq misses
system.l2.ReadExReq_misses::total               12640                       # number of ReadExReq misses
system.l2.demand_misses::cpu0.inst               3693                       # number of demand (read+write) misses
system.l2.demand_misses::cpu0.data              23628                       # number of demand (read+write) misses
system.l2.demand_misses::cpu1.inst                423                       # number of demand (read+write) misses
system.l2.demand_misses::cpu1.data              12454                       # number of demand (read+write) misses
system.l2.demand_misses::cpu2.inst                182                       # number of demand (read+write) misses
system.l2.demand_misses::cpu2.data              12613                       # number of demand (read+write) misses
system.l2.demand_misses::cpu3.inst                261                       # number of demand (read+write) misses
system.l2.demand_misses::cpu3.data              12722                       # number of demand (read+write) misses
system.l2.demand_misses::total                  65976                       # number of demand (read+write) misses
system.l2.overall_misses::cpu0.inst              3693                       # number of overall misses
system.l2.overall_misses::cpu0.data             23628                       # number of overall misses
system.l2.overall_misses::cpu1.inst               423                       # number of overall misses
system.l2.overall_misses::cpu1.data             12454                       # number of overall misses
system.l2.overall_misses::cpu2.inst               182                       # number of overall misses
system.l2.overall_misses::cpu2.data             12613                       # number of overall misses
system.l2.overall_misses::cpu3.inst               261                       # number of overall misses
system.l2.overall_misses::cpu3.data             12722                       # number of overall misses
system.l2.overall_misses::total                 65976                       # number of overall misses
system.l2.ReadReq_miss_latency::cpu0.inst    191812000                       # number of ReadReq miss cycles
system.l2.ReadReq_miss_latency::cpu0.data    763301000                       # number of ReadReq miss cycles
system.l2.ReadReq_miss_latency::cpu1.inst     21223000                       # number of ReadReq miss cycles
system.l2.ReadReq_miss_latency::cpu1.data    597990000                       # number of ReadReq miss cycles
system.l2.ReadReq_miss_latency::cpu2.inst      8960000                       # number of ReadReq miss cycles
system.l2.ReadReq_miss_latency::cpu2.data    607746000                       # number of ReadReq miss cycles
system.l2.ReadReq_miss_latency::cpu3.inst     12955000                       # number of ReadReq miss cycles
system.l2.ReadReq_miss_latency::cpu3.data    612556000                       # number of ReadReq miss cycles
system.l2.ReadReq_miss_latency::total      2816543000                       # number of ReadReq miss cycles
system.l2.UpgradeReq_miss_latency::cpu0.data        52000                       # number of UpgradeReq miss cycles
system.l2.UpgradeReq_miss_latency::cpu2.data       105000                       # number of UpgradeReq miss cycles
system.l2.UpgradeReq_miss_latency::total       157000                       # number of UpgradeReq miss cycles
system.l2.ReadExReq_miss_latency::cpu0.data    482599000                       # number of ReadExReq miss cycles
system.l2.ReadExReq_miss_latency::cpu1.data     60930000                       # number of ReadExReq miss cycles
system.l2.ReadExReq_miss_latency::cpu2.data     60709000                       # number of ReadExReq miss cycles
system.l2.ReadExReq_miss_latency::cpu3.data     61265000                       # number of ReadExReq miss cycles
system.l2.ReadExReq_miss_latency::total     665503000                       # number of ReadExReq miss cycles
system.l2.demand_miss_latency::cpu0.inst    191812000                       # number of demand (read+write) miss cycles
system.l2.demand_miss_latency::cpu0.data   1245900000                       # number of demand (read+write) miss cycles
system.l2.demand_miss_latency::cpu1.inst     21223000                       # number of demand (read+write) miss cycles
system.l2.demand_miss_latency::cpu1.data    658920000                       # number of demand (read+write) miss cycles
system.l2.demand_miss_latency::cpu2.inst      8960000                       # number of demand (read+write) miss cycles
system.l2.demand_miss_latency::cpu2.data    668455000                       # number of demand (read+write) miss cycles
system.l2.demand_miss_latency::cpu3.inst     12955000                       # number of demand (read+write) miss cycles
system.l2.demand_miss_latency::cpu3.data    673821000                       # number of demand (read+write) miss cycles
system.l2.demand_miss_latency::total       3482046000                       # number of demand (read+write) miss cycles
system.l2.overall_miss_latency::cpu0.inst    191812000                       # number of overall miss cycles
system.l2.overall_miss_latency::cpu0.data   1245900000                       # number of overall miss cycles
system.l2.overall_miss_latency::cpu1.inst     21223000                       # number of overall miss cycles
system.l2.overall_miss_latency::cpu1.data    658920000                       # number of overall miss cycles
system.l2.overall_miss_latency::cpu2.inst      8960000                       # number of overall miss cycles
system.l2.overall_miss_latency::cpu2.data    668455000                       # number of overall miss cycles
system.l2.overall_miss_latency::cpu3.inst     12955000                       # number of overall miss cycles
system.l2.overall_miss_latency::cpu3.data    673821000                       # number of overall miss cycles
system.l2.overall_miss_latency::total      3482046000                       # number of overall miss cycles
system.l2.ReadReq_accesses::cpu0.inst          425375                       # number of ReadReq accesses(hits+misses)
system.l2.ReadReq_accesses::cpu0.data          163661                       # number of ReadReq accesses(hits+misses)
system.l2.ReadReq_accesses::cpu1.inst            1160                       # number of ReadReq accesses(hits+misses)
system.l2.ReadReq_accesses::cpu1.data          132272                       # number of ReadReq accesses(hits+misses)
system.l2.ReadReq_accesses::cpu2.inst            1569                       # number of ReadReq accesses(hits+misses)
system.l2.ReadReq_accesses::cpu2.data          135864                       # number of ReadReq accesses(hits+misses)
system.l2.ReadReq_accesses::cpu3.inst            1103                       # number of ReadReq accesses(hits+misses)
system.l2.ReadReq_accesses::cpu3.data          124627                       # number of ReadReq accesses(hits+misses)
system.l2.ReadReq_accesses::total              985631                       # number of ReadReq accesses(hits+misses)
system.l2.Writeback_accesses::writebacks       146560                       # number of Writeback accesses(hits+misses)
system.l2.Writeback_accesses::total            146560                       # number of Writeback accesses(hits+misses)
system.l2.UpgradeReq_accesses::cpu0.data           70                       # number of UpgradeReq accesses(hits+misses)
system.l2.UpgradeReq_accesses::cpu1.data           34                       # number of UpgradeReq accesses(hits+misses)
system.l2.UpgradeReq_accesses::cpu2.data           63                       # number of UpgradeReq accesses(hits+misses)
system.l2.UpgradeReq_accesses::cpu3.data           74                       # number of UpgradeReq accesses(hits+misses)
system.l2.UpgradeReq_accesses::total              241                       # number of UpgradeReq accesses(hits+misses)
system.l2.SCUpgradeReq_accesses::cpu0.data            8                       # number of SCUpgradeReq accesses(hits+misses)
system.l2.SCUpgradeReq_accesses::cpu2.data            1                       # number of SCUpgradeReq accesses(hits+misses)
system.l2.SCUpgradeReq_accesses::cpu3.data           16                       # number of SCUpgradeReq accesses(hits+misses)
system.l2.SCUpgradeReq_accesses::total             25                       # number of SCUpgradeReq accesses(hits+misses)
system.l2.ReadExReq_accesses::cpu0.data         10205                       # number of ReadExReq accesses(hits+misses)
system.l2.ReadExReq_accesses::cpu1.data          1482                       # number of ReadExReq accesses(hits+misses)
system.l2.ReadExReq_accesses::cpu2.data          1991                       # number of ReadExReq accesses(hits+misses)
system.l2.ReadExReq_accesses::cpu3.data          1657                       # number of ReadExReq accesses(hits+misses)
system.l2.ReadExReq_accesses::total             15335                       # number of ReadExReq accesses(hits+misses)
system.l2.demand_accesses::cpu0.inst           425375                       # number of demand (read+write) accesses
system.l2.demand_accesses::cpu0.data           173866                       # number of demand (read+write) accesses
system.l2.demand_accesses::cpu1.inst             1160                       # number of demand (read+write) accesses
system.l2.demand_accesses::cpu1.data           133754                       # number of demand (read+write) accesses
system.l2.demand_accesses::cpu2.inst             1569                       # number of demand (read+write) accesses
system.l2.demand_accesses::cpu2.data           137855                       # number of demand (read+write) accesses
system.l2.demand_accesses::cpu3.inst             1103                       # number of demand (read+write) accesses
system.l2.demand_accesses::cpu3.data           126284                       # number of demand (read+write) accesses
system.l2.demand_accesses::total              1000966                       # number of demand (read+write) accesses
system.l2.overall_accesses::cpu0.inst          425375                       # number of overall (read+write) accesses
system.l2.overall_accesses::cpu0.data          173866                       # number of overall (read+write) accesses
system.l2.overall_accesses::cpu1.inst            1160                       # number of overall (read+write) accesses
system.l2.overall_accesses::cpu1.data          133754                       # number of overall (read+write) accesses
system.l2.overall_accesses::cpu2.inst            1569                       # number of overall (read+write) accesses
system.l2.overall_accesses::cpu2.data          137855                       # number of overall (read+write) accesses
system.l2.overall_accesses::cpu3.inst            1103                       # number of overall (read+write) accesses
system.l2.overall_accesses::cpu3.data          126284                       # number of overall (read+write) accesses
system.l2.overall_accesses::total             1000966                       # number of overall (read+write) accesses
system.l2.ReadReq_miss_rate::cpu0.inst       0.008682                       # miss rate for ReadReq accesses
system.l2.ReadReq_miss_rate::cpu0.data       0.088280                       # miss rate for ReadReq accesses
system.l2.ReadReq_miss_rate::cpu1.inst       0.364655                       # miss rate for ReadReq accesses
system.l2.ReadReq_miss_rate::cpu1.data       0.085438                       # miss rate for ReadReq accesses
system.l2.ReadReq_miss_rate::cpu2.inst       0.115997                       # miss rate for ReadReq accesses
system.l2.ReadReq_miss_rate::cpu2.data       0.084364                       # miss rate for ReadReq accesses
system.l2.ReadReq_miss_rate::cpu3.inst       0.236627                       # miss rate for ReadReq accesses
system.l2.ReadReq_miss_rate::cpu3.data       0.092805                       # miss rate for ReadReq accesses
system.l2.ReadReq_miss_rate::total           0.054114                       # miss rate for ReadReq accesses
system.l2.UpgradeReq_miss_rate::cpu0.data     0.042857                       # miss rate for UpgradeReq accesses
system.l2.UpgradeReq_miss_rate::cpu2.data     0.031746                       # miss rate for UpgradeReq accesses
system.l2.UpgradeReq_miss_rate::cpu3.data     0.013514                       # miss rate for UpgradeReq accesses
system.l2.UpgradeReq_miss_rate::total        0.024896                       # miss rate for UpgradeReq accesses
system.l2.SCUpgradeReq_miss_rate::cpu0.data     0.750000                       # miss rate for SCUpgradeReq accesses
system.l2.SCUpgradeReq_miss_rate::cpu2.data            1                       # miss rate for SCUpgradeReq accesses
system.l2.SCUpgradeReq_miss_rate::cpu3.data     0.750000                       # miss rate for SCUpgradeReq accesses
system.l2.SCUpgradeReq_miss_rate::total      0.760000                       # miss rate for SCUpgradeReq accesses
system.l2.ReadExReq_miss_rate::cpu0.data     0.899559                       # miss rate for ReadExReq accesses
system.l2.ReadExReq_miss_rate::cpu1.data     0.778003                       # miss rate for ReadExReq accesses
system.l2.ReadExReq_miss_rate::cpu2.data     0.578101                       # miss rate for ReadExReq accesses
system.l2.ReadExReq_miss_rate::cpu3.data     0.697646                       # miss rate for ReadExReq accesses
system.l2.ReadExReq_miss_rate::total         0.824258                       # miss rate for ReadExReq accesses
system.l2.demand_miss_rate::cpu0.inst        0.008682                       # miss rate for demand accesses
system.l2.demand_miss_rate::cpu0.data        0.135898                       # miss rate for demand accesses
system.l2.demand_miss_rate::cpu1.inst        0.364655                       # miss rate for demand accesses
system.l2.demand_miss_rate::cpu1.data        0.093111                       # miss rate for demand accesses
system.l2.demand_miss_rate::cpu2.inst        0.115997                       # miss rate for demand accesses
system.l2.demand_miss_rate::cpu2.data        0.091495                       # miss rate for demand accesses
system.l2.demand_miss_rate::cpu3.inst        0.236627                       # miss rate for demand accesses
system.l2.demand_miss_rate::cpu3.data        0.100741                       # miss rate for demand accesses
system.l2.demand_miss_rate::total            0.065912                       # miss rate for demand accesses
system.l2.overall_miss_rate::cpu0.inst       0.008682                       # miss rate for overall accesses
system.l2.overall_miss_rate::cpu0.data       0.135898                       # miss rate for overall accesses
system.l2.overall_miss_rate::cpu1.inst       0.364655                       # miss rate for overall accesses
system.l2.overall_miss_rate::cpu1.data       0.093111                       # miss rate for overall accesses
system.l2.overall_miss_rate::cpu2.inst       0.115997                       # miss rate for overall accesses
system.l2.overall_miss_rate::cpu2.data       0.091495                       # miss rate for overall accesses
system.l2.overall_miss_rate::cpu3.inst       0.236627                       # miss rate for overall accesses
system.l2.overall_miss_rate::cpu3.data       0.100741                       # miss rate for overall accesses
system.l2.overall_miss_rate::total           0.065912                       # miss rate for overall accesses
system.l2.ReadReq_avg_miss_latency::cpu0.inst 51939.344706                       # average ReadReq miss latency
system.l2.ReadReq_avg_miss_latency::cpu0.data 52830.910853                       # average ReadReq miss latency
system.l2.ReadReq_avg_miss_latency::cpu1.inst 50172.576832                       # average ReadReq miss latency
system.l2.ReadReq_avg_miss_latency::cpu1.data 52914.786302                       # average ReadReq miss latency
system.l2.ReadReq_avg_miss_latency::cpu2.inst 49230.769231                       # average ReadReq miss latency
system.l2.ReadReq_avg_miss_latency::cpu2.data 53022.683650                       # average ReadReq miss latency
system.l2.ReadReq_avg_miss_latency::cpu3.inst 49636.015326                       # average ReadReq miss latency
system.l2.ReadReq_avg_miss_latency::cpu3.data 52961.784541                       # average ReadReq miss latency
system.l2.ReadReq_avg_miss_latency::total 52807.540873                       # average ReadReq miss latency
system.l2.UpgradeReq_avg_miss_latency::cpu0.data 17333.333333                       # average UpgradeReq miss latency
system.l2.UpgradeReq_avg_miss_latency::cpu2.data        52500                       # average UpgradeReq miss latency
system.l2.UpgradeReq_avg_miss_latency::total 26166.666667                       # average UpgradeReq miss latency
system.l2.ReadExReq_avg_miss_latency::cpu0.data 52570.697168                       # average ReadExReq miss latency
system.l2.ReadExReq_avg_miss_latency::cpu1.data 52844.752819                       # average ReadExReq miss latency
system.l2.ReadExReq_avg_miss_latency::cpu2.data 52744.569939                       # average ReadExReq miss latency
system.l2.ReadExReq_avg_miss_latency::cpu3.data 52997.404844                       # average ReadExReq miss latency
system.l2.ReadExReq_avg_miss_latency::total 52650.553797                       # average ReadExReq miss latency
system.l2.demand_avg_miss_latency::cpu0.inst 51939.344706                       # average overall miss latency
system.l2.demand_avg_miss_latency::cpu0.data 52729.812087                       # average overall miss latency
system.l2.demand_avg_miss_latency::cpu1.inst 50172.576832                       # average overall miss latency
system.l2.demand_avg_miss_latency::cpu1.data 52908.302553                       # average overall miss latency
system.l2.demand_avg_miss_latency::cpu2.inst 49230.769231                       # average overall miss latency
system.l2.demand_avg_miss_latency::cpu2.data 52997.304369                       # average overall miss latency
system.l2.demand_avg_miss_latency::cpu3.inst 49636.015326                       # average overall miss latency
system.l2.demand_avg_miss_latency::cpu3.data 52965.021223                       # average overall miss latency
system.l2.demand_avg_miss_latency::total 52777.464533                       # average overall miss latency
system.l2.overall_avg_miss_latency::cpu0.inst 51939.344706                       # average overall miss latency
system.l2.overall_avg_miss_latency::cpu0.data 52729.812087                       # average overall miss latency
system.l2.overall_avg_miss_latency::cpu1.inst 50172.576832                       # average overall miss latency
system.l2.overall_avg_miss_latency::cpu1.data 52908.302553                       # average overall miss latency
system.l2.overall_avg_miss_latency::cpu2.inst 49230.769231                       # average overall miss latency
system.l2.overall_avg_miss_latency::cpu2.data 52997.304369                       # average overall miss latency
system.l2.overall_avg_miss_latency::cpu3.inst 49636.015326                       # average overall miss latency
system.l2.overall_avg_miss_latency::cpu3.data 52965.021223                       # average overall miss latency
system.l2.overall_avg_miss_latency::total 52777.464533                       # average overall miss latency
system.l2.blocked_cycles::no_mshrs                  0                       # number of cycles access was blocked
system.l2.blocked_cycles::no_targets                0                       # number of cycles access was blocked
system.l2.blocked::no_mshrs                         0                       # number of cycles access was blocked
system.l2.blocked::no_targets                       0                       # number of cycles access was blocked
system.l2.avg_blocked_cycles::no_mshrs            nan                       # average number of cycles each access was blocked
system.l2.avg_blocked_cycles::no_targets          nan                       # average number of cycles each access was blocked
system.l2.fast_writes                               0                       # number of fast writes performed
system.l2.cache_copies                              0                       # number of cache copies performed
system.l2.writebacks::writebacks                40382                       # number of writebacks
system.l2.writebacks::total                     40382                       # number of writebacks
system.l2.ReadReq_mshr_hits::cpu0.inst             36                       # number of ReadReq MSHR hits
system.l2.ReadReq_mshr_hits::cpu0.data             17                       # number of ReadReq MSHR hits
system.l2.ReadReq_mshr_hits::cpu1.inst             99                       # number of ReadReq MSHR hits
system.l2.ReadReq_mshr_hits::cpu1.data             42                       # number of ReadReq MSHR hits
system.l2.ReadReq_mshr_hits::cpu2.inst             67                       # number of ReadReq MSHR hits
system.l2.ReadReq_mshr_hits::cpu2.data             33                       # number of ReadReq MSHR hits
system.l2.ReadReq_mshr_hits::cpu3.inst             90                       # number of ReadReq MSHR hits
system.l2.ReadReq_mshr_hits::cpu3.data             59                       # number of ReadReq MSHR hits
system.l2.ReadReq_mshr_hits::total                443                       # number of ReadReq MSHR hits
system.l2.demand_mshr_hits::cpu0.inst              36                       # number of demand (read+write) MSHR hits
system.l2.demand_mshr_hits::cpu0.data              17                       # number of demand (read+write) MSHR hits
system.l2.demand_mshr_hits::cpu1.inst              99                       # number of demand (read+write) MSHR hits
system.l2.demand_mshr_hits::cpu1.data              42                       # number of demand (read+write) MSHR hits
system.l2.demand_mshr_hits::cpu2.inst              67                       # number of demand (read+write) MSHR hits
system.l2.demand_mshr_hits::cpu2.data              33                       # number of demand (read+write) MSHR hits
system.l2.demand_mshr_hits::cpu3.inst              90                       # number of demand (read+write) MSHR hits
system.l2.demand_mshr_hits::cpu3.data              59                       # number of demand (read+write) MSHR hits
system.l2.demand_mshr_hits::total                 443                       # number of demand (read+write) MSHR hits
system.l2.overall_mshr_hits::cpu0.inst             36                       # number of overall MSHR hits
system.l2.overall_mshr_hits::cpu0.data             17                       # number of overall MSHR hits
system.l2.overall_mshr_hits::cpu1.inst             99                       # number of overall MSHR hits
system.l2.overall_mshr_hits::cpu1.data             42                       # number of overall MSHR hits
system.l2.overall_mshr_hits::cpu2.inst             67                       # number of overall MSHR hits
system.l2.overall_mshr_hits::cpu2.data             33                       # number of overall MSHR hits
system.l2.overall_mshr_hits::cpu3.inst             90                       # number of overall MSHR hits
system.l2.overall_mshr_hits::cpu3.data             59                       # number of overall MSHR hits
system.l2.overall_mshr_hits::total                443                       # number of overall MSHR hits
system.l2.ReadReq_mshr_misses::cpu0.inst         3657                       # number of ReadReq MSHR misses
system.l2.ReadReq_mshr_misses::cpu0.data        14431                       # number of ReadReq MSHR misses
system.l2.ReadReq_mshr_misses::cpu1.inst          324                       # number of ReadReq MSHR misses
system.l2.ReadReq_mshr_misses::cpu1.data        11259                       # number of ReadReq MSHR misses
system.l2.ReadReq_mshr_misses::cpu2.inst          115                       # number of ReadReq MSHR misses
system.l2.ReadReq_mshr_misses::cpu2.data        11429                       # number of ReadReq MSHR misses
system.l2.ReadReq_mshr_misses::cpu3.inst          171                       # number of ReadReq MSHR misses
system.l2.ReadReq_mshr_misses::cpu3.data        11507                       # number of ReadReq MSHR misses
system.l2.ReadReq_mshr_misses::total            52893                       # number of ReadReq MSHR misses
system.l2.UpgradeReq_mshr_misses::cpu0.data            3                       # number of UpgradeReq MSHR misses
system.l2.UpgradeReq_mshr_misses::cpu2.data            2                       # number of UpgradeReq MSHR misses
system.l2.UpgradeReq_mshr_misses::cpu3.data            1                       # number of UpgradeReq MSHR misses
system.l2.UpgradeReq_mshr_misses::total             6                       # number of UpgradeReq MSHR misses
system.l2.SCUpgradeReq_mshr_misses::cpu0.data            6                       # number of SCUpgradeReq MSHR misses
system.l2.SCUpgradeReq_mshr_misses::cpu2.data            1                       # number of SCUpgradeReq MSHR misses
system.l2.SCUpgradeReq_mshr_misses::cpu3.data           12                       # number of SCUpgradeReq MSHR misses
system.l2.SCUpgradeReq_mshr_misses::total           19                       # number of SCUpgradeReq MSHR misses
system.l2.ReadExReq_mshr_misses::cpu0.data         9180                       # number of ReadExReq MSHR misses
system.l2.ReadExReq_mshr_misses::cpu1.data         1153                       # number of ReadExReq MSHR misses
system.l2.ReadExReq_mshr_misses::cpu2.data         1151                       # number of ReadExReq MSHR misses
system.l2.ReadExReq_mshr_misses::cpu3.data         1156                       # number of ReadExReq MSHR misses
system.l2.ReadExReq_mshr_misses::total          12640                       # number of ReadExReq MSHR misses
system.l2.demand_mshr_misses::cpu0.inst          3657                       # number of demand (read+write) MSHR misses
system.l2.demand_mshr_misses::cpu0.data         23611                       # number of demand (read+write) MSHR misses
system.l2.demand_mshr_misses::cpu1.inst           324                       # number of demand (read+write) MSHR misses
system.l2.demand_mshr_misses::cpu1.data         12412                       # number of demand (read+write) MSHR misses
system.l2.demand_mshr_misses::cpu2.inst           115                       # number of demand (read+write) MSHR misses
system.l2.demand_mshr_misses::cpu2.data         12580                       # number of demand (read+write) MSHR misses
system.l2.demand_mshr_misses::cpu3.inst           171                       # number of demand (read+write) MSHR misses
system.l2.demand_mshr_misses::cpu3.data         12663                       # number of demand (read+write) MSHR misses
system.l2.demand_mshr_misses::total             65533                       # number of demand (read+write) MSHR misses
system.l2.overall_mshr_misses::cpu0.inst         3657                       # number of overall MSHR misses
system.l2.overall_mshr_misses::cpu0.data        23611                       # number of overall MSHR misses
system.l2.overall_mshr_misses::cpu1.inst          324                       # number of overall MSHR misses
system.l2.overall_mshr_misses::cpu1.data        12412                       # number of overall MSHR misses
system.l2.overall_mshr_misses::cpu2.inst          115                       # number of overall MSHR misses
system.l2.overall_mshr_misses::cpu2.data        12580                       # number of overall MSHR misses
system.l2.overall_mshr_misses::cpu3.inst          171                       # number of overall MSHR misses
system.l2.overall_mshr_misses::cpu3.data        12663                       # number of overall MSHR misses
system.l2.overall_mshr_misses::total            65533                       # number of overall MSHR misses
system.l2.ReadReq_mshr_miss_latency::cpu0.inst    146397000                       # number of ReadReq MSHR miss cycles
system.l2.ReadReq_mshr_miss_latency::cpu0.data    589596000                       # number of ReadReq MSHR miss cycles
system.l2.ReadReq_mshr_miss_latency::cpu1.inst     12998000                       # number of ReadReq MSHR miss cycles
system.l2.ReadReq_mshr_miss_latency::cpu1.data    461231000                       # number of ReadReq MSHR miss cycles
system.l2.ReadReq_mshr_miss_latency::cpu2.inst      4633000                       # number of ReadReq MSHR miss cycles
system.l2.ReadReq_mshr_miss_latency::cpu2.data    469258000                       # number of ReadReq MSHR miss cycles
system.l2.ReadReq_mshr_miss_latency::cpu3.inst      6880000                       # number of ReadReq MSHR miss cycles
system.l2.ReadReq_mshr_miss_latency::cpu3.data    471888000                       # number of ReadReq MSHR miss cycles
system.l2.ReadReq_mshr_miss_latency::total   2162881000                       # number of ReadReq MSHR miss cycles
system.l2.UpgradeReq_mshr_miss_latency::cpu0.data       120000                       # number of UpgradeReq MSHR miss cycles
system.l2.UpgradeReq_mshr_miss_latency::cpu2.data        81000                       # number of UpgradeReq MSHR miss cycles
system.l2.UpgradeReq_mshr_miss_latency::cpu3.data        41000                       # number of UpgradeReq MSHR miss cycles
system.l2.UpgradeReq_mshr_miss_latency::total       242000                       # number of UpgradeReq MSHR miss cycles
system.l2.SCUpgradeReq_mshr_miss_latency::cpu0.data       240000                       # number of SCUpgradeReq MSHR miss cycles
system.l2.SCUpgradeReq_mshr_miss_latency::cpu2.data        40000                       # number of SCUpgradeReq MSHR miss cycles
system.l2.SCUpgradeReq_mshr_miss_latency::cpu3.data       481000                       # number of SCUpgradeReq MSHR miss cycles
system.l2.SCUpgradeReq_mshr_miss_latency::total       761000                       # number of SCUpgradeReq MSHR miss cycles
system.l2.ReadExReq_mshr_miss_latency::cpu0.data    372439000                       # number of ReadExReq MSHR miss cycles
system.l2.ReadExReq_mshr_miss_latency::cpu1.data     47094000                       # number of ReadExReq MSHR miss cycles
system.l2.ReadExReq_mshr_miss_latency::cpu2.data     46897000                       # number of ReadExReq MSHR miss cycles
system.l2.ReadExReq_mshr_miss_latency::cpu3.data     47393000                       # number of ReadExReq MSHR miss cycles
system.l2.ReadExReq_mshr_miss_latency::total    513823000                       # number of ReadExReq MSHR miss cycles
system.l2.demand_mshr_miss_latency::cpu0.inst    146397000                       # number of demand (read+write) MSHR miss cycles
system.l2.demand_mshr_miss_latency::cpu0.data    962035000                       # number of demand (read+write) MSHR miss cycles
system.l2.demand_mshr_miss_latency::cpu1.inst     12998000                       # number of demand (read+write) MSHR miss cycles
system.l2.demand_mshr_miss_latency::cpu1.data    508325000                       # number of demand (read+write) MSHR miss cycles
system.l2.demand_mshr_miss_latency::cpu2.inst      4633000                       # number of demand (read+write) MSHR miss cycles
system.l2.demand_mshr_miss_latency::cpu2.data    516155000                       # number of demand (read+write) MSHR miss cycles
system.l2.demand_mshr_miss_latency::cpu3.inst      6880000                       # number of demand (read+write) MSHR miss cycles
system.l2.demand_mshr_miss_latency::cpu3.data    519281000                       # number of demand (read+write) MSHR miss cycles
system.l2.demand_mshr_miss_latency::total   2676704000                       # number of demand (read+write) MSHR miss cycles
system.l2.overall_mshr_miss_latency::cpu0.inst    146397000                       # number of overall MSHR miss cycles
system.l2.overall_mshr_miss_latency::cpu0.data    962035000                       # number of overall MSHR miss cycles
system.l2.overall_mshr_miss_latency::cpu1.inst     12998000                       # number of overall MSHR miss cycles
system.l2.overall_mshr_miss_latency::cpu1.data    508325000                       # number of overall MSHR miss cycles
system.l2.overall_mshr_miss_latency::cpu2.inst      4633000                       # number of overall MSHR miss cycles
system.l2.overall_mshr_miss_latency::cpu2.data    516155000                       # number of overall MSHR miss cycles
system.l2.overall_mshr_miss_latency::cpu3.inst      6880000                       # number of overall MSHR miss cycles
system.l2.overall_mshr_miss_latency::cpu3.data    519281000                       # number of overall MSHR miss cycles
system.l2.overall_mshr_miss_latency::total   2676704000                       # number of overall MSHR miss cycles
system.l2.ReadReq_mshr_miss_rate::cpu0.inst     0.008597                       # mshr miss rate for ReadReq accesses
system.l2.ReadReq_mshr_miss_rate::cpu0.data     0.088176                       # mshr miss rate for ReadReq accesses
system.l2.ReadReq_mshr_miss_rate::cpu1.inst     0.279310                       # mshr miss rate for ReadReq accesses
system.l2.ReadReq_mshr_miss_rate::cpu1.data     0.085120                       # mshr miss rate for ReadReq accesses
system.l2.ReadReq_mshr_miss_rate::cpu2.inst     0.073295                       # mshr miss rate for ReadReq accesses
system.l2.ReadReq_mshr_miss_rate::cpu2.data     0.084121                       # mshr miss rate for ReadReq accesses
system.l2.ReadReq_mshr_miss_rate::cpu3.inst     0.155032                       # mshr miss rate for ReadReq accesses
system.l2.ReadReq_mshr_miss_rate::cpu3.data     0.092332                       # mshr miss rate for ReadReq accesses
system.l2.ReadReq_mshr_miss_rate::total      0.053664                       # mshr miss rate for ReadReq accesses
system.l2.UpgradeReq_mshr_miss_rate::cpu0.data     0.042857                       # mshr miss rate for UpgradeReq accesses
system.l2.UpgradeReq_mshr_miss_rate::cpu2.data     0.031746                       # mshr miss rate for UpgradeReq accesses
system.l2.UpgradeReq_mshr_miss_rate::cpu3.data     0.013514                       # mshr miss rate for UpgradeReq accesses
system.l2.UpgradeReq_mshr_miss_rate::total     0.024896                       # mshr miss rate for UpgradeReq accesses
system.l2.SCUpgradeReq_mshr_miss_rate::cpu0.data     0.750000                       # mshr miss rate for SCUpgradeReq accesses
system.l2.SCUpgradeReq_mshr_miss_rate::cpu2.data            1                       # mshr miss rate for SCUpgradeReq accesses
system.l2.SCUpgradeReq_mshr_miss_rate::cpu3.data     0.750000                       # mshr miss rate for SCUpgradeReq accesses
system.l2.SCUpgradeReq_mshr_miss_rate::total     0.760000                       # mshr miss rate for SCUpgradeReq accesses
system.l2.ReadExReq_mshr_miss_rate::cpu0.data     0.899559                       # mshr miss rate for ReadExReq accesses
system.l2.ReadExReq_mshr_miss_rate::cpu1.data     0.778003                       # mshr miss rate for ReadExReq accesses
system.l2.ReadExReq_mshr_miss_rate::cpu2.data     0.578101                       # mshr miss rate for ReadExReq accesses
system.l2.ReadExReq_mshr_miss_rate::cpu3.data     0.697646                       # mshr miss rate for ReadExReq accesses
system.l2.ReadExReq_mshr_miss_rate::total     0.824258                       # mshr miss rate for ReadExReq accesses
system.l2.demand_mshr_miss_rate::cpu0.inst     0.008597                       # mshr miss rate for demand accesses
system.l2.demand_mshr_miss_rate::cpu0.data     0.135800                       # mshr miss rate for demand accesses
system.l2.demand_mshr_miss_rate::cpu1.inst     0.279310                       # mshr miss rate for demand accesses
system.l2.demand_mshr_miss_rate::cpu1.data     0.092797                       # mshr miss rate for demand accesses
system.l2.demand_mshr_miss_rate::cpu2.inst     0.073295                       # mshr miss rate for demand accesses
system.l2.demand_mshr_miss_rate::cpu2.data     0.091255                       # mshr miss rate for demand accesses
system.l2.demand_mshr_miss_rate::cpu3.inst     0.155032                       # mshr miss rate for demand accesses
system.l2.demand_mshr_miss_rate::cpu3.data     0.100274                       # mshr miss rate for demand accesses
system.l2.demand_mshr_miss_rate::total       0.065470                       # mshr miss rate for demand accesses
system.l2.overall_mshr_miss_rate::cpu0.inst     0.008597                       # mshr miss rate for overall accesses
system.l2.overall_mshr_miss_rate::cpu0.data     0.135800                       # mshr miss rate for overall accesses
system.l2.overall_mshr_miss_rate::cpu1.inst     0.279310                       # mshr miss rate for overall accesses
system.l2.overall_mshr_miss_rate::cpu1.data     0.092797                       # mshr miss rate for overall accesses
system.l2.overall_mshr_miss_rate::cpu2.inst     0.073295                       # mshr miss rate for overall accesses
system.l2.overall_mshr_miss_rate::cpu2.data     0.091255                       # mshr miss rate for overall accesses
system.l2.overall_mshr_miss_rate::cpu3.inst     0.155032                       # mshr miss rate for overall accesses
system.l2.overall_mshr_miss_rate::cpu3.data     0.100274                       # mshr miss rate for overall accesses
system.l2.overall_mshr_miss_rate::total      0.065470                       # mshr miss rate for overall accesses
system.l2.ReadReq_avg_mshr_miss_latency::cpu0.inst 40031.993437                       # average ReadReq mshr miss latency
system.l2.ReadReq_avg_mshr_miss_latency::cpu0.data 40856.212321                       # average ReadReq mshr miss latency
system.l2.ReadReq_avg_mshr_miss_latency::cpu1.inst 40117.283951                       # average ReadReq mshr miss latency
system.l2.ReadReq_avg_mshr_miss_latency::cpu1.data 40965.538680                       # average ReadReq mshr miss latency
system.l2.ReadReq_avg_mshr_miss_latency::cpu2.inst 40286.956522                       # average ReadReq mshr miss latency
system.l2.ReadReq_avg_mshr_miss_latency::cpu2.data 41058.535305                       # average ReadReq mshr miss latency
system.l2.ReadReq_avg_mshr_miss_latency::cpu3.inst 40233.918129                       # average ReadReq mshr miss latency
system.l2.ReadReq_avg_mshr_miss_latency::cpu3.data 41008.777266                       # average ReadReq mshr miss latency
system.l2.ReadReq_avg_mshr_miss_latency::total 40891.630272                       # average ReadReq mshr miss latency
system.l2.UpgradeReq_avg_mshr_miss_latency::cpu0.data        40000                       # average UpgradeReq mshr miss latency
system.l2.UpgradeReq_avg_mshr_miss_latency::cpu2.data        40500                       # average UpgradeReq mshr miss latency
system.l2.UpgradeReq_avg_mshr_miss_latency::cpu3.data        41000                       # average UpgradeReq mshr miss latency
system.l2.UpgradeReq_avg_mshr_miss_latency::total 40333.333333                       # average UpgradeReq mshr miss latency
system.l2.SCUpgradeReq_avg_mshr_miss_latency::cpu0.data        40000                       # average SCUpgradeReq mshr miss latency
system.l2.SCUpgradeReq_avg_mshr_miss_latency::cpu2.data        40000                       # average SCUpgradeReq mshr miss latency
system.l2.SCUpgradeReq_avg_mshr_miss_latency::cpu3.data 40083.333333                       # average SCUpgradeReq mshr miss latency
system.l2.SCUpgradeReq_avg_mshr_miss_latency::total 40052.631579                       # average SCUpgradeReq mshr miss latency
system.l2.ReadExReq_avg_mshr_miss_latency::cpu0.data 40570.697168                       # average ReadExReq mshr miss latency
system.l2.ReadExReq_avg_mshr_miss_latency::cpu1.data 40844.752819                       # average ReadExReq mshr miss latency
system.l2.ReadExReq_avg_mshr_miss_latency::cpu2.data 40744.569939                       # average ReadExReq mshr miss latency
system.l2.ReadExReq_avg_mshr_miss_latency::cpu3.data 40997.404844                       # average ReadExReq mshr miss latency
system.l2.ReadExReq_avg_mshr_miss_latency::total 40650.553797                       # average ReadExReq mshr miss latency
system.l2.demand_avg_mshr_miss_latency::cpu0.inst 40031.993437                       # average overall mshr miss latency
system.l2.demand_avg_mshr_miss_latency::cpu0.data 40745.203507                       # average overall mshr miss latency
system.l2.demand_avg_mshr_miss_latency::cpu1.inst 40117.283951                       # average overall mshr miss latency
system.l2.demand_avg_mshr_miss_latency::cpu1.data 40954.318402                       # average overall mshr miss latency
system.l2.demand_avg_mshr_miss_latency::cpu2.inst 40286.956522                       # average overall mshr miss latency
system.l2.demand_avg_mshr_miss_latency::cpu2.data 41029.809221                       # average overall mshr miss latency
system.l2.demand_avg_mshr_miss_latency::cpu3.inst 40233.918129                       # average overall mshr miss latency
system.l2.demand_avg_mshr_miss_latency::cpu3.data 41007.739082                       # average overall mshr miss latency
system.l2.demand_avg_mshr_miss_latency::total 40845.131460                       # average overall mshr miss latency
system.l2.overall_avg_mshr_miss_latency::cpu0.inst 40031.993437                       # average overall mshr miss latency
system.l2.overall_avg_mshr_miss_latency::cpu0.data 40745.203507                       # average overall mshr miss latency
system.l2.overall_avg_mshr_miss_latency::cpu1.inst 40117.283951                       # average overall mshr miss latency
system.l2.overall_avg_mshr_miss_latency::cpu1.data 40954.318402                       # average overall mshr miss latency
system.l2.overall_avg_mshr_miss_latency::cpu2.inst 40286.956522                       # average overall mshr miss latency
system.l2.overall_avg_mshr_miss_latency::cpu2.data 41029.809221                       # average overall mshr miss latency
system.l2.overall_avg_mshr_miss_latency::cpu3.inst 40233.918129                       # average overall mshr miss latency
system.l2.overall_avg_mshr_miss_latency::cpu3.data 41007.739082                       # average overall mshr miss latency
system.l2.overall_avg_mshr_miss_latency::total 40845.131460                       # average overall mshr miss latency
system.l2.no_allocate_misses                        0                       # Number of misses that were no-allocate
system.cpu0.dtb.fetch_hits                          0                       # ITB hits
system.cpu0.dtb.fetch_misses                        0                       # ITB misses
system.cpu0.dtb.fetch_acv                           0                       # ITB acv
system.cpu0.dtb.fetch_accesses                      0                       # ITB accesses
system.cpu0.dtb.read_hits                    36915331                       # DTB read hits
system.cpu0.dtb.read_misses                     22844                       # DTB read misses
system.cpu0.dtb.read_acv                           58                       # DTB read access violations
system.cpu0.dtb.read_accesses                36938175                       # DTB read accesses
system.cpu0.dtb.write_hits                   14895506                       # DTB write hits
system.cpu0.dtb.write_misses                      626                       # DTB write misses
system.cpu0.dtb.write_acv                           0                       # DTB write access violations
system.cpu0.dtb.write_accesses               14896132                       # DTB write accesses
system.cpu0.dtb.data_hits                    51810837                       # DTB hits
system.cpu0.dtb.data_misses                     23470                       # DTB misses
system.cpu0.dtb.data_acv                           58                       # DTB access violations
system.cpu0.dtb.data_accesses                51834307                       # DTB accesses
system.cpu0.itb.fetch_hits                   26766268                       # ITB hits
system.cpu0.itb.fetch_misses                      306                       # ITB misses
system.cpu0.itb.fetch_acv                           0                       # ITB acv
system.cpu0.itb.fetch_accesses               26766574                       # ITB accesses
system.cpu0.itb.read_hits                           0                       # DTB read hits
system.cpu0.itb.read_misses                         0                       # DTB read misses
system.cpu0.itb.read_acv                            0                       # DTB read access violations
system.cpu0.itb.read_accesses                       0                       # DTB read accesses
system.cpu0.itb.write_hits                          0                       # DTB write hits
system.cpu0.itb.write_misses                        0                       # DTB write misses
system.cpu0.itb.write_acv                           0                       # DTB write access violations
system.cpu0.itb.write_accesses                      0                       # DTB write accesses
system.cpu0.itb.data_hits                           0                       # DTB hits
system.cpu0.itb.data_misses                         0                       # DTB misses
system.cpu0.itb.data_acv                            0                       # DTB access violations
system.cpu0.itb.data_accesses                       0                       # DTB accesses
system.cpu0.numCycles                        65152117                       # number of cpu cycles simulated
system.cpu0.numWorkItemsStarted                     0                       # number of work items this cpu started
system.cpu0.numWorkItemsCompleted                   0                       # number of work items this cpu completed
system.cpu0.BPredUnit.lookups                27582741                       # Number of BP lookups
system.cpu0.BPredUnit.condPredicted          23736037                       # Number of conditional branches predicted
system.cpu0.BPredUnit.condIncorrect            696523                       # Number of conditional branches incorrect
system.cpu0.BPredUnit.BTBLookups             19795258                       # Number of BTB lookups
system.cpu0.BPredUnit.BTBHits                19305123                       # Number of BTB hits
system.cpu0.BPredUnit.BTBCorrect                    0                       # Number of correct BTB predictions (this stat may not work properly.
system.cpu0.BPredUnit.usedRAS                 1067535                       # Number of times the RAS was used to get a target.
system.cpu0.BPredUnit.RASInCorrect               1859                       # Number of incorrect RAS predictions.
system.cpu0.fetch.icacheStallCycles           5949873                       # Number of cycles fetch is stalled on an Icache miss
system.cpu0.fetch.Insts                     194584369                       # Number of instructions fetch has processed
system.cpu0.fetch.Branches                   27582741                       # Number of branches that fetch encountered
system.cpu0.fetch.predictedBranches          20372658                       # Number of branches that fetch has predicted taken
system.cpu0.fetch.Cycles                     36240256                       # Number of cycles fetch has run and was not squashing or blocked
system.cpu0.fetch.SquashCycles                3187502                       # Number of cycles fetch has spent squashing
system.cpu0.fetch.BlockedCycles              20328513                       # Number of cycles fetch has spent blocked
system.cpu0.fetch.MiscStallCycles                 136                       # Number of cycles fetch has spent waiting on interrupts, or bad addresses, or out of MSHRs
system.cpu0.fetch.PendingTrapStallCycles         5099                       # Number of stall cycles due to pending traps
system.cpu0.fetch.CacheLines                 26766268                       # Number of cache lines fetched
system.cpu0.fetch.IcacheSquashes                40378                       # Number of outstanding Icache misses that were squashed
system.cpu0.fetch.rateDist::samples          65009981                       # Number of instructions fetched each cycle (Total)
system.cpu0.fetch.rateDist::mean             2.993146                       # Number of instructions fetched each cycle (Total)
system.cpu0.fetch.rateDist::stdev            3.156013                       # Number of instructions fetched each cycle (Total)
system.cpu0.fetch.rateDist::underflows              0      0.00%      0.00% # Number of instructions fetched each cycle (Total)
system.cpu0.fetch.rateDist::0                28769725     44.25%     44.25% # Number of instructions fetched each cycle (Total)
system.cpu0.fetch.rateDist::1                 2996994      4.61%     48.86% # Number of instructions fetched each cycle (Total)
system.cpu0.fetch.rateDist::2                 1208275      1.86%     50.72% # Number of instructions fetched each cycle (Total)
system.cpu0.fetch.rateDist::3                 1435526      2.21%     52.93% # Number of instructions fetched each cycle (Total)
system.cpu0.fetch.rateDist::4                 8492911     13.06%     66.00% # Number of instructions fetched each cycle (Total)
system.cpu0.fetch.rateDist::5                 7593031     11.68%     77.67% # Number of instructions fetched each cycle (Total)
system.cpu0.fetch.rateDist::6                 1164497      1.79%     79.47% # Number of instructions fetched each cycle (Total)
system.cpu0.fetch.rateDist::7                  851710      1.31%     80.78% # Number of instructions fetched each cycle (Total)
system.cpu0.fetch.rateDist::8                12497312     19.22%    100.00% # Number of instructions fetched each cycle (Total)
system.cpu0.fetch.rateDist::overflows               0      0.00%    100.00% # Number of instructions fetched each cycle (Total)
system.cpu0.fetch.rateDist::min_value               0                       # Number of instructions fetched each cycle (Total)
system.cpu0.fetch.rateDist::max_value               8                       # Number of instructions fetched each cycle (Total)
system.cpu0.fetch.rateDist::total            65009981                       # Number of instructions fetched each cycle (Total)
system.cpu0.fetch.branchRate                 0.423359                       # Number of branch fetches per cycle
system.cpu0.fetch.rate                       2.986616                       # Number of inst fetches per cycle
system.cpu0.decode.IdleCycles                 9436990                       # Number of cycles decode is idle
system.cpu0.decode.BlockedCycles             17489945                       # Number of cycles decode is blocked
system.cpu0.decode.RunCycles                 32721911                       # Number of cycles decode is running
system.cpu0.decode.UnblockCycles              2877698                       # Number of cycles decode is unblocking
system.cpu0.decode.SquashCycles               2483437                       # Number of cycles decode is squashing
system.cpu0.decode.BranchResolved             2540700                       # Number of times decode resolved a branch
system.cpu0.decode.BranchMispred                 3048                       # Number of times decode detected a branch misprediction
system.cpu0.decode.DecodedInsts             191472163                       # Number of instructions handled by decode
system.cpu0.decode.SquashedInsts                13353                       # Number of squashed instructions handled by decode
system.cpu0.rename.SquashCycles               2483437                       # Number of cycles rename is squashing
system.cpu0.rename.IdleCycles                12773737                       # Number of cycles rename is idle
system.cpu0.rename.BlockCycles               10185472                       # Number of cycles rename is blocking
system.cpu0.rename.serializeStallCycles        416507                       # count of cycles rename stalled for serializing inst
system.cpu0.rename.RunCycles                 32190606                       # Number of cycles rename is running
system.cpu0.rename.UnblockCycles              6960222                       # Number of cycles rename is unblocking
system.cpu0.rename.RenamedInsts             188390789                       # Number of instructions processed by rename
system.cpu0.rename.ROBFullEvents                  483                       # Number of times rename has blocked due to ROB full
system.cpu0.rename.IQFullEvents                 73558                       # Number of times rename has blocked due to IQ full
system.cpu0.rename.LSQFullEvents              4715265                       # Number of times rename has blocked due to LSQ full
system.cpu0.rename.RenamedOperands          140653291                       # Number of destination operands rename has renamed
system.cpu0.rename.RenameLookups            256332228                       # Number of register rename lookups that rename has made
system.cpu0.rename.int_rename_lookups        93945664                       # Number of integer rename lookups
system.cpu0.rename.fp_rename_lookups        162386564                       # Number of floating rename lookups
system.cpu0.rename.CommittedMaps            123875728                       # Number of HB maps that are committed
system.cpu0.rename.UndoneMaps                16777563                       # Number of HB maps that are undone due to squashing
system.cpu0.rename.serializingInsts             38521                       # count of serializing insts renamed
system.cpu0.rename.tempSerializingInsts         14351                       # count of temporary serializing insts renamed
system.cpu0.rename.skidInsts                 25298437                       # count of insts added to the skid buffer
system.cpu0.memDep0.insertedLoads            37335033                       # Number of loads inserted to the mem dependence unit.
system.cpu0.memDep0.insertedStores           15358894                       # Number of stores inserted to the mem dependence unit.
system.cpu0.memDep0.conflictingLoads          2551914                       # Number of conflicting loads.
system.cpu0.memDep0.conflictingStores         1489603                       # Number of conflicting stores.
system.cpu0.iq.iqInstsAdded                 176132452                       # Number of instructions added to the IQ (excludes non-spec)
system.cpu0.iq.iqNonSpecInstsAdded              26781                       # Number of non-speculative instructions added to the IQ
system.cpu0.iq.iqInstsIssued                170555638                       # Number of instructions issued
system.cpu0.iq.iqSquashedInstsIssued           470446                       # Number of squashed instructions issued
system.cpu0.iq.iqSquashedInstsExamined       15767858                       # Number of squashed instructions iterated over during squash; mainly for profiling
system.cpu0.iq.iqSquashedOperandsExamined     10300495                       # Number of squashed operands that are examined and possibly removed from graph
system.cpu0.iq.iqSquashedNonSpecRemoved           565                       # Number of squashed non-spec instructions that were removed
system.cpu0.iq.issued_per_cycle::samples     65009981                       # Number of insts issued each cycle
system.cpu0.iq.issued_per_cycle::mean        2.623530                       # Number of insts issued each cycle
system.cpu0.iq.issued_per_cycle::stdev       2.091408                       # Number of insts issued each cycle
system.cpu0.iq.issued_per_cycle::underflows            0      0.00%      0.00% # Number of insts issued each cycle
system.cpu0.iq.issued_per_cycle::0           16669906     25.64%     25.64% # Number of insts issued each cycle
system.cpu0.iq.issued_per_cycle::1            6845410     10.53%     36.17% # Number of insts issued each cycle
system.cpu0.iq.issued_per_cycle::2            6335211      9.74%     45.92% # Number of insts issued each cycle
system.cpu0.iq.issued_per_cycle::3           12039830     18.52%     64.44% # Number of insts issued each cycle
system.cpu0.iq.issued_per_cycle::4            8984388     13.82%     78.26% # Number of insts issued each cycle
system.cpu0.iq.issued_per_cycle::5            7057475     10.86%     89.11% # Number of insts issued each cycle
system.cpu0.iq.issued_per_cycle::6            6001363      9.23%     98.34% # Number of insts issued each cycle
system.cpu0.iq.issued_per_cycle::7             923973      1.42%     99.77% # Number of insts issued each cycle
system.cpu0.iq.issued_per_cycle::8             152425      0.23%    100.00% # Number of insts issued each cycle
system.cpu0.iq.issued_per_cycle::overflows            0      0.00%    100.00% # Number of insts issued each cycle
system.cpu0.iq.issued_per_cycle::min_value            0                       # Number of insts issued each cycle
system.cpu0.iq.issued_per_cycle::max_value            8                       # Number of insts issued each cycle
system.cpu0.iq.issued_per_cycle::total       65009981                       # Number of insts issued each cycle
system.cpu0.iq.fu_full::No_OpClass                  0      0.00%      0.00% # attempts to use FU when none available
system.cpu0.iq.fu_full::IntAlu                  89551      2.98%      2.98% # attempts to use FU when none available
system.cpu0.iq.fu_full::IntMult                     0      0.00%      2.98% # attempts to use FU when none available
system.cpu0.iq.fu_full::IntDiv                      0      0.00%      2.98% # attempts to use FU when none available
system.cpu0.iq.fu_full::FloatAdd               229873      7.65%     10.63% # attempts to use FU when none available
system.cpu0.iq.fu_full::FloatCmp                    4      0.00%     10.63% # attempts to use FU when none available
system.cpu0.iq.fu_full::FloatCvt                    0      0.00%     10.63% # attempts to use FU when none available
system.cpu0.iq.fu_full::FloatMult             1249456     41.58%     52.21% # attempts to use FU when none available
system.cpu0.iq.fu_full::FloatDiv               187644      6.24%     58.45% # attempts to use FU when none available
system.cpu0.iq.fu_full::FloatSqrt                   0      0.00%     58.45% # attempts to use FU when none available
system.cpu0.iq.fu_full::SimdAdd                     0      0.00%     58.45% # attempts to use FU when none available
system.cpu0.iq.fu_full::SimdAddAcc                  0      0.00%     58.45% # attempts to use FU when none available
system.cpu0.iq.fu_full::SimdAlu                     0      0.00%     58.45% # attempts to use FU when none available
system.cpu0.iq.fu_full::SimdCmp                     0      0.00%     58.45% # attempts to use FU when none available
system.cpu0.iq.fu_full::SimdCvt                     0      0.00%     58.45% # attempts to use FU when none available
system.cpu0.iq.fu_full::SimdMisc                    0      0.00%     58.45% # attempts to use FU when none available
system.cpu0.iq.fu_full::SimdMult                    0      0.00%     58.45% # attempts to use FU when none available
system.cpu0.iq.fu_full::SimdMultAcc                 0      0.00%     58.45% # attempts to use FU when none available
system.cpu0.iq.fu_full::SimdShift                   0      0.00%     58.45% # attempts to use FU when none available
system.cpu0.iq.fu_full::SimdShiftAcc                0      0.00%     58.45% # attempts to use FU when none available
system.cpu0.iq.fu_full::SimdSqrt                    0      0.00%     58.45% # attempts to use FU when none available
system.cpu0.iq.fu_full::SimdFloatAdd                0      0.00%     58.45% # attempts to use FU when none available
system.cpu0.iq.fu_full::SimdFloatAlu                0      0.00%     58.45% # attempts to use FU when none available
system.cpu0.iq.fu_full::SimdFloatCmp                0      0.00%     58.45% # attempts to use FU when none available
system.cpu0.iq.fu_full::SimdFloatCvt                0      0.00%     58.45% # attempts to use FU when none available
system.cpu0.iq.fu_full::SimdFloatDiv                0      0.00%     58.45% # attempts to use FU when none available
system.cpu0.iq.fu_full::SimdFloatMisc               0      0.00%     58.45% # attempts to use FU when none available
system.cpu0.iq.fu_full::SimdFloatMult               0      0.00%     58.45% # attempts to use FU when none available
system.cpu0.iq.fu_full::SimdFloatMultAcc            0      0.00%     58.45% # attempts to use FU when none available
system.cpu0.iq.fu_full::SimdFloatSqrt               0      0.00%     58.45% # attempts to use FU when none available
system.cpu0.iq.fu_full::MemRead               1132693     37.69%     96.15% # attempts to use FU when none available
system.cpu0.iq.fu_full::MemWrite               115738      3.85%    100.00% # attempts to use FU when none available
system.cpu0.iq.fu_full::IprAccess                   0      0.00%    100.00% # attempts to use FU when none available
system.cpu0.iq.fu_full::InstPrefetch                0      0.00%    100.00% # attempts to use FU when none available
system.cpu0.iq.FU_type_0::No_OpClass                0      0.00%      0.00% # Type of FU issued
system.cpu0.iq.FU_type_0::IntAlu             64024569     37.54%     37.54% # Type of FU issued
system.cpu0.iq.FU_type_0::IntMult                9322      0.01%     37.54% # Type of FU issued
system.cpu0.iq.FU_type_0::IntDiv                    0      0.00%     37.54% # Type of FU issued
system.cpu0.iq.FU_type_0::FloatAdd           37639910     22.07%     59.61% # Type of FU issued
system.cpu0.iq.FU_type_0::FloatCmp            7390838      4.33%     63.95% # Type of FU issued
system.cpu0.iq.FU_type_0::FloatCvt                  0      0.00%     63.95% # Type of FU issued
system.cpu0.iq.FU_type_0::FloatMult           9064388      5.31%     69.26% # Type of FU issued
system.cpu0.iq.FU_type_0::FloatDiv             265697      0.16%     69.42% # Type of FU issued
[...]
system.cpu3.icache.overall_mshr_miss_latency::total     25073000                       # number of overall MSHR miss cycles
system.cpu3.icache.ReadReq_mshr_miss_rate::cpu3.inst     0.000046                       # mshr miss rate for ReadReq accesses
system.cpu3.icache.ReadReq_mshr_miss_rate::total     0.000046                       # mshr miss rate for ReadReq accesses
system.cpu3.icache.demand_mshr_miss_rate::cpu3.inst     0.000046                       # mshr miss rate for demand accesses
system.cpu3.icache.demand_mshr_miss_rate::total     0.000046                       # mshr miss rate for demand accesses
system.cpu3.icache.overall_mshr_miss_rate::cpu3.inst     0.000046                       # mshr miss rate for overall accesses
system.cpu3.icache.overall_mshr_miss_rate::total     0.000046                       # mshr miss rate for overall accesses
system.cpu3.icache.ReadReq_avg_mshr_miss_latency::cpu3.inst 22731.640979                       # average ReadReq mshr miss latency
system.cpu3.icache.ReadReq_avg_mshr_miss_latency::total 22731.640979                       # average ReadReq mshr miss latency
system.cpu3.icache.demand_avg_mshr_miss_latency::cpu3.inst 22731.640979                       # average overall mshr miss latency
system.cpu3.icache.demand_avg_mshr_miss_latency::total 22731.640979                       # average overall mshr miss latency
system.cpu3.icache.overall_avg_mshr_miss_latency::cpu3.inst 22731.640979                       # average overall mshr miss latency
system.cpu3.icache.overall_avg_mshr_miss_latency::total 22731.640979                       # average overall mshr miss latency
system.cpu3.icache.no_allocate_misses               0                       # Number of misses that were no-allocate
system.cpu3.dcache.replacements                129530                       # number of replacements
system.cpu3.dcache.tagsinuse               209.359741                       # Cycle average of tags in use
system.cpu3.dcache.total_refs                42260925                       # Total number of references to valid blocks.
system.cpu3.dcache.sampled_refs                129779                       # Sample count of references to valid blocks.
system.cpu3.dcache.avg_refs                325.637622                       # Average number of references to valid blocks.
system.cpu3.dcache.warmup_cycle           22395494000                       # Cycle when the warmup percentage was hit.
system.cpu3.dcache.occ_blocks::cpu3.data   209.359741                       # Average occupied blocks per requestor
system.cpu3.dcache.occ_percent::cpu3.data     0.817811                       # Average percentage of cache occupancy
system.cpu3.dcache.occ_percent::total        0.817811                       # Average percentage of cache occupancy
system.cpu3.dcache.ReadReq_hits::cpu3.data     29799067                       # number of ReadReq hits
system.cpu3.dcache.ReadReq_hits::total       29799067                       # number of ReadReq hits
system.cpu3.dcache.WriteReq_hits::cpu3.data     12461489                       # number of WriteReq hits
system.cpu3.dcache.WriteReq_hits::total      12461489                       # number of WriteReq hits
system.cpu3.dcache.LoadLockedReq_hits::cpu3.data           96                       # number of LoadLockedReq hits
system.cpu3.dcache.LoadLockedReq_hits::total           96                       # number of LoadLockedReq hits
system.cpu3.dcache.StoreCondReq_hits::cpu3.data           38                       # number of StoreCondReq hits
system.cpu3.dcache.StoreCondReq_hits::total           38                       # number of StoreCondReq hits
system.cpu3.dcache.demand_hits::cpu3.data     42260556                       # number of demand (read+write) hits
system.cpu3.dcache.demand_hits::total        42260556                       # number of demand (read+write) hits
system.cpu3.dcache.overall_hits::cpu3.data     42260556                       # number of overall hits
system.cpu3.dcache.overall_hits::total       42260556                       # number of overall hits
system.cpu3.dcache.ReadReq_misses::cpu3.data       379081                       # number of ReadReq misses
system.cpu3.dcache.ReadReq_misses::total       379081                       # number of ReadReq misses
system.cpu3.dcache.WriteReq_misses::cpu3.data         7049                       # number of WriteReq misses
system.cpu3.dcache.WriteReq_misses::total         7049                       # number of WriteReq misses
system.cpu3.dcache.LoadLockedReq_misses::cpu3.data           36                       # number of LoadLockedReq misses
system.cpu3.dcache.LoadLockedReq_misses::total           36                       # number of LoadLockedReq misses
system.cpu3.dcache.StoreCondReq_misses::cpu3.data           78                       # number of StoreCondReq misses
system.cpu3.dcache.StoreCondReq_misses::total           78                       # number of StoreCondReq misses
system.cpu3.dcache.demand_misses::cpu3.data       386130                       # number of demand (read+write) misses
system.cpu3.dcache.demand_misses::total        386130                       # number of demand (read+write) misses
system.cpu3.dcache.overall_misses::cpu3.data       386130                       # number of overall misses
system.cpu3.dcache.overall_misses::total       386130                       # number of overall misses
system.cpu3.dcache.ReadReq_miss_latency::cpu3.data   5532519000                       # number of ReadReq miss cycles
system.cpu3.dcache.ReadReq_miss_latency::total   5532519000                       # number of ReadReq miss cycles
system.cpu3.dcache.WriteReq_miss_latency::cpu3.data    315113996                       # number of WriteReq miss cycles
system.cpu3.dcache.WriteReq_miss_latency::total    315113996                       # number of WriteReq miss cycles
system.cpu3.dcache.LoadLockedReq_miss_latency::cpu3.data       318000                       # number of LoadLockedReq miss cycles
system.cpu3.dcache.LoadLockedReq_miss_latency::total       318000                       # number of LoadLockedReq miss cycles
system.cpu3.dcache.StoreCondReq_miss_latency::cpu3.data      1081000                       # number of StoreCondReq miss cycles
system.cpu3.dcache.StoreCondReq_miss_latency::total      1081000                       # number of StoreCondReq miss cycles
system.cpu3.dcache.demand_miss_latency::cpu3.data   5847632996                       # number of demand (read+write) miss cycles
system.cpu3.dcache.demand_miss_latency::total   5847632996                       # number of demand (read+write) miss cycles
system.cpu3.dcache.overall_miss_latency::cpu3.data   5847632996                       # number of overall miss cycles
system.cpu3.dcache.overall_miss_latency::total   5847632996                       # number of overall miss cycles
system.cpu3.dcache.ReadReq_accesses::cpu3.data     30178148                       # number of ReadReq accesses(hits+misses)
system.cpu3.dcache.ReadReq_accesses::total     30178148                       # number of ReadReq accesses(hits+misses)
system.cpu3.dcache.WriteReq_accesses::cpu3.data     12468538                       # number of WriteReq accesses(hits+misses)
system.cpu3.dcache.WriteReq_accesses::total     12468538                       # number of WriteReq accesses(hits+misses)
system.cpu3.dcache.LoadLockedReq_accesses::cpu3.data          132                       # number of LoadLockedReq accesses(hits+misses)
system.cpu3.dcache.LoadLockedReq_accesses::total          132                       # number of LoadLockedReq accesses(hits+misses)
system.cpu3.dcache.StoreCondReq_accesses::cpu3.data          116                       # number of StoreCondReq accesses(hits+misses)
system.cpu3.dcache.StoreCondReq_accesses::total          116                       # number of StoreCondReq accesses(hits+misses)
system.cpu3.dcache.demand_accesses::cpu3.data     42646686                       # number of demand (read+write) accesses
system.cpu3.dcache.demand_accesses::total     42646686                       # number of demand (read+write) accesses
system.cpu3.dcache.overall_accesses::cpu3.data     42646686                       # number of overall (read+write) accesses
system.cpu3.dcache.overall_accesses::total     42646686                       # number of overall (read+write) accesses
system.cpu3.dcache.ReadReq_miss_rate::cpu3.data     0.012561                       # miss rate for ReadReq accesses
system.cpu3.dcache.ReadReq_miss_rate::total     0.012561                       # miss rate for ReadReq accesses
system.cpu3.dcache.WriteReq_miss_rate::cpu3.data     0.000565                       # miss rate for WriteReq accesses
system.cpu3.dcache.WriteReq_miss_rate::total     0.000565                       # miss rate for WriteReq accesses
system.cpu3.dcache.LoadLockedReq_miss_rate::cpu3.data     0.272727                       # miss rate for LoadLockedReq accesses
system.cpu3.dcache.LoadLockedReq_miss_rate::total     0.272727                       # miss rate for LoadLockedReq accesses
system.cpu3.dcache.StoreCondReq_miss_rate::cpu3.data     0.672414                       # miss rate for StoreCondReq accesses
system.cpu3.dcache.StoreCondReq_miss_rate::total     0.672414                       # miss rate for StoreCondReq accesses
system.cpu3.dcache.demand_miss_rate::cpu3.data     0.009054                       # miss rate for demand accesses
system.cpu3.dcache.demand_miss_rate::total     0.009054                       # miss rate for demand accesses
system.cpu3.dcache.overall_miss_rate::cpu3.data     0.009054                       # miss rate for overall accesses
system.cpu3.dcache.overall_miss_rate::total     0.009054                       # miss rate for overall accesses
system.cpu3.dcache.ReadReq_avg_miss_latency::cpu3.data 14594.556309                       # average ReadReq miss latency
system.cpu3.dcache.ReadReq_avg_miss_latency::total 14594.556309                       # average ReadReq miss latency
system.cpu3.dcache.WriteReq_avg_miss_latency::cpu3.data 44703.361612                       # average WriteReq miss latency
system.cpu3.dcache.WriteReq_avg_miss_latency::total 44703.361612                       # average WriteReq miss latency
system.cpu3.dcache.LoadLockedReq_avg_miss_latency::cpu3.data  8833.333333                       # average LoadLockedReq miss latency
system.cpu3.dcache.LoadLockedReq_avg_miss_latency::total  8833.333333                       # average LoadLockedReq miss latency
system.cpu3.dcache.StoreCondReq_avg_miss_latency::cpu3.data 13858.974359                       # average StoreCondReq miss latency
system.cpu3.dcache.StoreCondReq_avg_miss_latency::total 13858.974359                       # average StoreCondReq miss latency
system.cpu3.dcache.demand_avg_miss_latency::cpu3.data 15144.207899                       # average overall miss latency
system.cpu3.dcache.demand_avg_miss_latency::total 15144.207899                       # average overall miss latency
system.cpu3.dcache.overall_avg_miss_latency::cpu3.data 15144.207899                       # average overall miss latency
system.cpu3.dcache.overall_avg_miss_latency::total 15144.207899                       # average overall miss latency
system.cpu3.dcache.blocked_cycles::no_mshrs            0                       # number of cycles access was blocked
system.cpu3.dcache.blocked_cycles::no_targets    101618000                       # number of cycles access was blocked
system.cpu3.dcache.blocked::no_mshrs                0                       # number of cycles access was blocked
system.cpu3.dcache.blocked::no_targets          14762                       # number of cycles access was blocked
system.cpu3.dcache.avg_blocked_cycles::no_mshrs          nan                       # average number of cycles each access was blocked
system.cpu3.dcache.avg_blocked_cycles::no_targets  6883.755589                       # average number of cycles each access was blocked
system.cpu3.dcache.fast_writes                      0                       # number of fast writes performed
system.cpu3.dcache.cache_copies                     0                       # number of cache copies performed
system.cpu3.dcache.writebacks::writebacks        29909                       # number of writebacks
system.cpu3.dcache.writebacks::total            29909                       # number of writebacks
system.cpu3.dcache.ReadReq_mshr_hits::cpu3.data       250815                       # number of ReadReq MSHR hits
system.cpu3.dcache.ReadReq_mshr_hits::total       250815                       # number of ReadReq MSHR hits
system.cpu3.dcache.WriteReq_mshr_hits::cpu3.data         5234                       # number of WriteReq MSHR hits
system.cpu3.dcache.WriteReq_mshr_hits::total         5234                       # number of WriteReq MSHR hits
system.cpu3.dcache.LoadLockedReq_mshr_hits::cpu3.data            2                       # number of LoadLockedReq MSHR hits
system.cpu3.dcache.LoadLockedReq_mshr_hits::total            2                       # number of LoadLockedReq MSHR hits
system.cpu3.dcache.demand_mshr_hits::cpu3.data       256049                       # number of demand (read+write) MSHR hits
system.cpu3.dcache.demand_mshr_hits::total       256049                       # number of demand (read+write) MSHR hits
system.cpu3.dcache.overall_mshr_hits::cpu3.data       256049                       # number of overall MSHR hits
system.cpu3.dcache.overall_mshr_hits::total       256049                       # number of overall MSHR hits
system.cpu3.dcache.ReadReq_mshr_misses::cpu3.data       128266                       # number of ReadReq MSHR misses
system.cpu3.dcache.ReadReq_mshr_misses::total       128266                       # number of ReadReq MSHR misses
system.cpu3.dcache.WriteReq_mshr_misses::cpu3.data         1815                       # number of WriteReq MSHR misses
system.cpu3.dcache.WriteReq_mshr_misses::total         1815                       # number of WriteReq MSHR misses
system.cpu3.dcache.LoadLockedReq_mshr_misses::cpu3.data           34                       # number of LoadLockedReq MSHR misses
system.cpu3.dcache.LoadLockedReq_mshr_misses::total           34                       # number of LoadLockedReq MSHR misses
system.cpu3.dcache.StoreCondReq_mshr_misses::cpu3.data           77                       # number of StoreCondReq MSHR misses
system.cpu3.dcache.StoreCondReq_mshr_misses::total           77                       # number of StoreCondReq MSHR misses
system.cpu3.dcache.demand_mshr_misses::cpu3.data       130081                       # number of demand (read+write) MSHR misses
system.cpu3.dcache.demand_mshr_misses::total       130081                       # number of demand (read+write) MSHR misses
system.cpu3.dcache.overall_mshr_misses::cpu3.data       130081                       # number of overall MSHR misses
system.cpu3.dcache.overall_mshr_misses::total       130081                       # number of overall MSHR misses
system.cpu3.dcache.ReadReq_mshr_miss_latency::cpu3.data   2006628000                       # number of ReadReq MSHR miss cycles
system.cpu3.dcache.ReadReq_mshr_miss_latency::total   2006628000                       # number of ReadReq MSHR miss cycles
system.cpu3.dcache.WriteReq_mshr_miss_latency::cpu3.data     71896998                       # number of WriteReq MSHR miss cycles
system.cpu3.dcache.WriteReq_mshr_miss_latency::total     71896998                       # number of WriteReq MSHR miss cycles
system.cpu3.dcache.LoadLockedReq_mshr_miss_latency::cpu3.data       157000                       # number of LoadLockedReq MSHR miss cycles
system.cpu3.dcache.LoadLockedReq_mshr_miss_latency::total       157000                       # number of LoadLockedReq MSHR miss cycles
system.cpu3.dcache.StoreCondReq_mshr_miss_latency::cpu3.data       850000                       # number of StoreCondReq MSHR miss cycles
system.cpu3.dcache.StoreCondReq_mshr_miss_latency::total       850000                       # number of StoreCondReq MSHR miss cycles
system.cpu3.dcache.demand_mshr_miss_latency::cpu3.data   2078524998                       # number of demand (read+write) MSHR miss cycles
system.cpu3.dcache.demand_mshr_miss_latency::total   2078524998                       # number of demand (read+write) MSHR miss cycles
system.cpu3.dcache.overall_mshr_miss_latency::cpu3.data   2078524998                       # number of overall MSHR miss cycles
system.cpu3.dcache.overall_mshr_miss_latency::total   2078524998                       # number of overall MSHR miss cycles
system.cpu3.dcache.ReadReq_mshr_miss_rate::cpu3.data     0.004250                       # mshr miss rate for ReadReq accesses
system.cpu3.dcache.ReadReq_mshr_miss_rate::total     0.004250                       # mshr miss rate for ReadReq accesses
system.cpu3.dcache.WriteReq_mshr_miss_rate::cpu3.data     0.000146                       # mshr miss rate for WriteReq accesses
system.cpu3.dcache.WriteReq_mshr_miss_rate::total     0.000146                       # mshr miss rate for WriteReq accesses
system.cpu3.dcache.LoadLockedReq_mshr_miss_rate::cpu3.data     0.257576                       # mshr miss rate for LoadLockedReq accesses
system.cpu3.dcache.LoadLockedReq_mshr_miss_rate::total     0.257576                       # mshr miss rate for LoadLockedReq accesses
system.cpu3.dcache.StoreCondReq_mshr_miss_rate::cpu3.data     0.663793                       # mshr miss rate for StoreCondReq accesses
system.cpu3.dcache.StoreCondReq_mshr_miss_rate::total     0.663793                       # mshr miss rate for StoreCondReq accesses
system.cpu3.dcache.demand_mshr_miss_rate::cpu3.data     0.003050                       # mshr miss rate for demand accesses
system.cpu3.dcache.demand_mshr_miss_rate::total     0.003050                       # mshr miss rate for demand accesses
system.cpu3.dcache.overall_mshr_miss_rate::cpu3.data     0.003050                       # mshr miss rate for overall accesses
system.cpu3.dcache.overall_mshr_miss_rate::total     0.003050                       # mshr miss rate for overall accesses
system.cpu3.dcache.ReadReq_avg_mshr_miss_latency::cpu3.data 15644.270500                       # average ReadReq mshr miss latency
system.cpu3.dcache.ReadReq_avg_mshr_miss_latency::total 15644.270500                       # average ReadReq mshr miss latency
system.cpu3.dcache.WriteReq_avg_mshr_miss_latency::cpu3.data 39612.671074                       # average WriteReq mshr miss latency
system.cpu3.dcache.WriteReq_avg_mshr_miss_latency::total 39612.671074                       # average WriteReq mshr miss latency
system.cpu3.dcache.LoadLockedReq_avg_mshr_miss_latency::cpu3.data  4617.647059                       # average LoadLockedReq mshr miss latency
system.cpu3.dcache.LoadLockedReq_avg_mshr_miss_latency::total  4617.647059                       # average LoadLockedReq mshr miss latency
system.cpu3.dcache.StoreCondReq_avg_mshr_miss_latency::cpu3.data 11038.961039                       # average StoreCondReq mshr miss latency
system.cpu3.dcache.StoreCondReq_avg_mshr_miss_latency::total 11038.961039                       # average StoreCondReq mshr miss latency
system.cpu3.dcache.demand_avg_mshr_miss_latency::cpu3.data 15978.697873                       # average overall mshr miss latency
system.cpu3.dcache.demand_avg_mshr_miss_latency::total 15978.697873                       # average overall mshr miss latency
system.cpu3.dcache.overall_avg_mshr_miss_latency::cpu3.data 15978.697873                       # average overall mshr miss latency
system.cpu3.dcache.overall_avg_mshr_miss_latency::total 15978.697873                       # average overall mshr miss latency
system.cpu3.dcache.no_allocate_misses               0                       # Number of misses that were no-allocate

---------- End Simulation Statistics   ----------
