
---------- Begin Simulation Statistics ----------
sim_seconds                                  1.129307                       # Number of seconds simulated
sim_ticks                                1129307268000                       # Number of ticks simulated
final_tick                               1129307268000                       # Number of ticks from beginning of simulation (restored from checkpoints and never reset)
sim_freq                                 1000000000000                       # Frequency of simulated ticks
host_inst_rate                                 137135                       # Simulator instruction rate (inst/s)
host_op_rate                                   212309                       # Simulator op (including micro ops) rate (op/s)
host_tick_rate                               77623404                       # Simulator tick rate (ticks/s)
host_mem_usage                                 366204                       # Number of bytes of host memory used
host_seconds                                 14548.54                       # Real time elapsed on the host
sim_insts                                  1995106856                       # Number of instructions simulated
sim_ops                                    3088789578                       # Number of ops (including micro ops) simulated
system.ruby.l2_cntrl5.L2cache.demand_hits      1260242                       # Number of cache demand hits
system.ruby.l2_cntrl5.L2cache.demand_misses        15152                       # Number of cache demand misses
system.ruby.l2_cntrl5.L2cache.demand_accesses      1275394                       # Number of cache demand accesses
system.ruby.l2_cntrl4.L2cache.demand_hits      1346841                       # Number of cache demand hits
system.ruby.l2_cntrl4.L2cache.demand_misses        14530                       # Number of cache demand misses
system.ruby.l2_cntrl4.L2cache.demand_accesses      1361371                       # Number of cache demand accesses
system.ruby.l2_cntrl11.L2cache.demand_hits      1123786                       # Number of cache demand hits
system.ruby.l2_cntrl11.L2cache.demand_misses        10935                       # Number of cache demand misses
system.ruby.l2_cntrl11.L2cache.demand_accesses      1134721                       # Number of cache demand accesses
system.ruby.l2_cntrl10.L2cache.demand_hits      1012517                       # Number of cache demand hits
system.ruby.l2_cntrl10.L2cache.demand_misses        13641                       # Number of cache demand misses
system.ruby.l2_cntrl10.L2cache.demand_accesses      1026158                       # Number of cache demand accesses
system.ruby.l2_cntrl13.L2cache.demand_hits       866879                       # Number of cache demand hits
system.ruby.l2_cntrl13.L2cache.demand_misses        11473                       # Number of cache demand misses
system.ruby.l2_cntrl13.L2cache.demand_accesses       878352                       # Number of cache demand accesses
system.ruby.l2_cntrl12.L2cache.demand_hits      1179414                       # Number of cache demand hits
system.ruby.l2_cntrl12.L2cache.demand_misses        11950                       # Number of cache demand misses
system.ruby.l2_cntrl12.L2cache.demand_accesses      1191364                       # Number of cache demand accesses
system.ruby.l2_cntrl15.L2cache.demand_hits       814349                       # Number of cache demand hits
system.ruby.l2_cntrl15.L2cache.demand_misses        10902                       # Number of cache demand misses
system.ruby.l2_cntrl15.L2cache.demand_accesses       825251                       # Number of cache demand accesses
system.ruby.l2_cntrl14.L2cache.demand_hits      1372149                       # Number of cache demand hits
system.ruby.l2_cntrl14.L2cache.demand_misses        10904                       # Number of cache demand misses
system.ruby.l2_cntrl14.L2cache.demand_accesses      1383053                       # Number of cache demand accesses
system.ruby.l1_cntrl4.L1Dcache.demand_hits     65703660                       # Number of cache demand hits
system.ruby.l1_cntrl4.L1Dcache.demand_misses      1509533                       # Number of cache demand misses
system.ruby.l1_cntrl4.L1Dcache.demand_accesses     67213193                       # Number of cache demand accesses
system.ruby.l1_cntrl4.L1Icache.demand_hits    174114002                       # Number of cache demand hits
system.ruby.l1_cntrl4.L1Icache.demand_misses          561                       # Number of cache demand misses
system.ruby.l1_cntrl4.L1Icache.demand_accesses    174114563                       # Number of cache demand accesses
system.ruby.l1_cntrl4.prefetcher.miss_observed            0                       # number of misses observed
system.ruby.l1_cntrl4.prefetcher.allocated_streams            0                       # number of streams allocated for prefetching
system.ruby.l1_cntrl4.prefetcher.prefetches_requested            0                       # number of prefetch requests made
system.ruby.l1_cntrl4.prefetcher.prefetches_accepted            0                       # number of prefetch requests accepted
system.ruby.l1_cntrl4.prefetcher.dropped_prefetches            0                       # number of prefetch requests dropped
system.ruby.l1_cntrl4.prefetcher.hits               0                       # number of prefetched blocks accessed
system.ruby.l1_cntrl4.prefetcher.partial_hits            0                       # number of misses observed for a block being prefetched
system.ruby.l1_cntrl4.prefetcher.pages_crossed            0                       # number of prefetches across pages
system.ruby.l1_cntrl4.prefetcher.misses_on_prefetched_blocks            0                       # number of misses for blocks that were prefetched, yet missed
system.ruby.l1_cntrl5.L1Dcache.demand_hits     65712184                       # Number of cache demand hits
system.ruby.l1_cntrl5.L1Dcache.demand_misses      1500161                       # Number of cache demand misses
system.ruby.l1_cntrl5.L1Dcache.demand_accesses     67212345                       # Number of cache demand accesses
system.ruby.l1_cntrl5.L1Icache.demand_hits    174125652                       # Number of cache demand hits
system.ruby.l1_cntrl5.L1Icache.demand_misses          559                       # Number of cache demand misses
system.ruby.l1_cntrl5.L1Icache.demand_accesses    174126211                       # Number of cache demand accesses
system.ruby.l1_cntrl5.prefetcher.miss_observed            0                       # number of misses observed
system.ruby.l1_cntrl5.prefetcher.allocated_streams            0                       # number of streams allocated for prefetching
system.ruby.l1_cntrl5.prefetcher.prefetches_requested            0                       # number of prefetch requests made
system.ruby.l1_cntrl5.prefetcher.prefetches_accepted            0                       # number of prefetch requests accepted
system.ruby.l1_cntrl5.prefetcher.dropped_prefetches            0                       # number of prefetch requests dropped
system.ruby.l1_cntrl5.prefetcher.hits               0                       # number of prefetched blocks accessed
system.ruby.l1_cntrl5.prefetcher.partial_hits            0                       # number of misses observed for a block being prefetched
system.ruby.l1_cntrl5.prefetcher.pages_crossed            0                       # number of prefetches across pages
system.ruby.l1_cntrl5.prefetcher.misses_on_prefetched_blocks            0                       # number of misses for blocks that were prefetched, yet missed
system.ruby.l1_cntrl6.L1Dcache.demand_hits     66049868                       # Number of cache demand hits
system.ruby.l1_cntrl6.L1Dcache.demand_misses      1413511                       # Number of cache demand misses
system.ruby.l1_cntrl6.L1Dcache.demand_accesses     67463379                       # Number of cache demand accesses
system.ruby.l1_cntrl6.L1Icache.demand_hits    174222383                       # Number of cache demand hits
system.ruby.l1_cntrl6.L1Icache.demand_misses          506                       # Number of cache demand misses
system.ruby.l1_cntrl6.L1Icache.demand_accesses    174222889                       # Number of cache demand accesses
system.ruby.l1_cntrl6.prefetcher.miss_observed            0                       # number of misses observed
system.ruby.l1_cntrl6.prefetcher.allocated_streams            0                       # number of streams allocated for prefetching
system.ruby.l1_cntrl6.prefetcher.prefetches_requested            0                       # number of prefetch requests made
system.ruby.l1_cntrl6.prefetcher.prefetches_accepted            0                       # number of prefetch requests accepted
system.ruby.l1_cntrl6.prefetcher.dropped_prefetches            0                       # number of prefetch requests dropped
system.ruby.l1_cntrl6.prefetcher.hits               0                       # number of prefetched blocks accessed
system.ruby.l1_cntrl6.prefetcher.partial_hits            0                       # number of misses observed for a block being prefetched
system.ruby.l1_cntrl6.prefetcher.pages_crossed            0                       # number of prefetches across pages
system.ruby.l1_cntrl6.prefetcher.misses_on_prefetched_blocks            0                       # number of misses for blocks that were prefetched, yet missed
system.ruby.l1_cntrl7.L1Dcache.demand_hits     68014461                       # Number of cache demand hits
system.ruby.l1_cntrl7.L1Dcache.demand_misses      1129316                       # Number of cache demand misses
system.ruby.l1_cntrl7.L1Dcache.demand_accesses     69143777                       # Number of cache demand accesses
system.ruby.l1_cntrl7.L1Icache.demand_hits    173695407                       # Number of cache demand hits
system.ruby.l1_cntrl7.L1Icache.demand_misses          518                       # Number of cache demand misses
system.ruby.l1_cntrl7.L1Icache.demand_accesses    173695925                       # Number of cache demand accesses
system.ruby.l1_cntrl7.prefetcher.miss_observed            0                       # number of misses observed
system.ruby.l1_cntrl7.prefetcher.allocated_streams            0                       # number of streams allocated for prefetching
system.ruby.l1_cntrl7.prefetcher.prefetches_requested            0                       # number of prefetch requests made
system.ruby.l1_cntrl7.prefetcher.prefetches_accepted            0                       # number of prefetch requests accepted
system.ruby.l1_cntrl7.prefetcher.dropped_prefetches            0                       # number of prefetch requests dropped
system.ruby.l1_cntrl7.prefetcher.hits               0                       # number of prefetched blocks accessed
system.ruby.l1_cntrl7.prefetcher.partial_hits            0                       # number of misses observed for a block being prefetched
system.ruby.l1_cntrl7.prefetcher.pages_crossed            0                       # number of prefetches across pages
system.ruby.l1_cntrl7.prefetcher.misses_on_prefetched_blocks            0                       # number of misses for blocks that were prefetched, yet missed
system.ruby.l1_cntrl0.L1Dcache.demand_hits     74186732                       # Number of cache demand hits
system.ruby.l1_cntrl0.L1Dcache.demand_misses      1321159                       # Number of cache demand misses
system.ruby.l1_cntrl0.L1Dcache.demand_accesses     75507891                       # Number of cache demand accesses
system.ruby.l1_cntrl0.L1Icache.demand_hits    200596978                       # Number of cache demand hits
system.ruby.l1_cntrl0.L1Icache.demand_misses         1543                       # Number of cache demand misses
system.ruby.l1_cntrl0.L1Icache.demand_accesses    200598521                       # Number of cache demand accesses
system.ruby.l1_cntrl0.prefetcher.miss_observed            0                       # number of misses observed
system.ruby.l1_cntrl0.prefetcher.allocated_streams            0                       # number of streams allocated for prefetching
system.ruby.l1_cntrl0.prefetcher.prefetches_requested            0                       # number of prefetch requests made
system.ruby.l1_cntrl0.prefetcher.prefetches_accepted            0                       # number of prefetch requests accepted
system.ruby.l1_cntrl0.prefetcher.dropped_prefetches            0                       # number of prefetch requests dropped
system.ruby.l1_cntrl0.prefetcher.hits               0                       # number of prefetched blocks accessed
system.ruby.l1_cntrl0.prefetcher.partial_hits            0                       # number of misses observed for a block being prefetched
system.ruby.l1_cntrl0.prefetcher.pages_crossed            0                       # number of prefetches across pages
system.ruby.l1_cntrl0.prefetcher.misses_on_prefetched_blocks            0                       # number of misses for blocks that were prefetched, yet missed
system.ruby.l1_cntrl1.L1Dcache.demand_hits     68133168                       # Number of cache demand hits
system.ruby.l1_cntrl1.L1Dcache.demand_misses      1022198                       # Number of cache demand misses
system.ruby.l1_cntrl1.L1Dcache.demand_accesses     69155366                       # Number of cache demand accesses
system.ruby.l1_cntrl1.L1Icache.demand_hits    174093531                       # Number of cache demand hits
system.ruby.l1_cntrl1.L1Icache.demand_misses          555                       # Number of cache demand misses
system.ruby.l1_cntrl1.L1Icache.demand_accesses    174094086                       # Number of cache demand accesses
system.ruby.l1_cntrl1.prefetcher.miss_observed            0                       # number of misses observed
system.ruby.l1_cntrl1.prefetcher.allocated_streams            0                       # number of streams allocated for prefetching
system.ruby.l1_cntrl1.prefetcher.prefetches_requested            0                       # number of prefetch requests made
system.ruby.l1_cntrl1.prefetcher.prefetches_accepted            0                       # number of prefetch requests accepted
system.ruby.l1_cntrl1.prefetcher.dropped_prefetches            0                       # number of prefetch requests dropped
system.ruby.l1_cntrl1.prefetcher.hits               0                       # number of prefetched blocks accessed
system.ruby.l1_cntrl1.prefetcher.partial_hits            0                       # number of misses observed for a block being prefetched
system.ruby.l1_cntrl1.prefetcher.pages_crossed            0                       # number of prefetches across pages
system.ruby.l1_cntrl1.prefetcher.misses_on_prefetched_blocks            0                       # number of misses for blocks that were prefetched, yet missed
system.ruby.l1_cntrl2.L1Dcache.demand_hits     66599645                       # Number of cache demand hits
system.ruby.l1_cntrl2.L1Dcache.demand_misses      1357384                       # Number of cache demand misses
system.ruby.l1_cntrl2.L1Dcache.demand_accesses     67957029                       # Number of cache demand accesses
system.ruby.l1_cntrl2.L1Icache.demand_hits    173959456                       # Number of cache demand hits
system.ruby.l1_cntrl2.L1Icache.demand_misses          524                       # Number of cache demand misses
system.ruby.l1_cntrl2.L1Icache.demand_accesses    173959980                       # Number of cache demand accesses
system.ruby.l1_cntrl2.prefetcher.miss_observed            0                       # number of misses observed
system.ruby.l1_cntrl2.prefetcher.allocated_streams            0                       # number of streams allocated for prefetching
system.ruby.l1_cntrl2.prefetcher.prefetches_requested            0                       # number of prefetch requests made
system.ruby.l1_cntrl2.prefetcher.prefetches_accepted            0                       # number of prefetch requests accepted
system.ruby.l1_cntrl2.prefetcher.dropped_prefetches            0                       # number of prefetch requests dropped
system.ruby.l1_cntrl2.prefetcher.hits               0                       # number of prefetched blocks accessed
system.ruby.l1_cntrl2.prefetcher.partial_hits            0                       # number of misses observed for a block being prefetched
system.ruby.l1_cntrl2.prefetcher.pages_crossed            0                       # number of prefetches across pages
system.ruby.l1_cntrl2.prefetcher.misses_on_prefetched_blocks            0                       # number of misses for blocks that were prefetched, yet missed
system.ruby.l1_cntrl3.L1Dcache.demand_hits     66161406                       # Number of cache demand hits
system.ruby.l1_cntrl3.L1Dcache.demand_misses      1408263                       # Number of cache demand misses
system.ruby.l1_cntrl3.L1Dcache.demand_accesses     67569669                       # Number of cache demand accesses
system.ruby.l1_cntrl3.L1Icache.demand_hits    174162919                       # Number of cache demand hits
system.ruby.l1_cntrl3.L1Icache.demand_misses          508                       # Number of cache demand misses
system.ruby.l1_cntrl3.L1Icache.demand_accesses    174163427                       # Number of cache demand accesses
system.ruby.l1_cntrl3.prefetcher.miss_observed            0                       # number of misses observed
system.ruby.l1_cntrl3.prefetcher.allocated_streams            0                       # number of streams allocated for prefetching
system.ruby.l1_cntrl3.prefetcher.prefetches_requested            0                       # number of prefetch requests made
system.ruby.l1_cntrl3.prefetcher.prefetches_accepted            0                       # number of prefetch requests accepted
system.ruby.l1_cntrl3.prefetcher.dropped_prefetches            0                       # number of prefetch requests dropped
system.ruby.l1_cntrl3.prefetcher.hits               0                       # number of prefetched blocks accessed
system.ruby.l1_cntrl3.prefetcher.partial_hits            0                       # number of misses observed for a block being prefetched
system.ruby.l1_cntrl3.prefetcher.pages_crossed            0                       # number of prefetches across pages
system.ruby.l1_cntrl3.prefetcher.misses_on_prefetched_blocks            0                       # number of misses for blocks that were prefetched, yet missed
system.ruby.l2_cntrl1.L2cache.demand_hits      1591900                       # Number of cache demand hits
system.ruby.l2_cntrl1.L2cache.demand_misses        17469                       # Number of cache demand misses
system.ruby.l2_cntrl1.L2cache.demand_accesses      1609369                       # Number of cache demand accesses
system.ruby.l2_cntrl0.L2cache.demand_hits      2039163                       # Number of cache demand hits
system.ruby.l2_cntrl0.L2cache.demand_misses        32019                       # Number of cache demand misses
system.ruby.l2_cntrl0.L2cache.demand_accesses      2071182                       # Number of cache demand accesses
system.ruby.l2_cntrl3.L2cache.demand_hits      1461510                       # Number of cache demand hits
system.ruby.l2_cntrl3.L2cache.demand_misses        15769                       # Number of cache demand misses
system.ruby.l2_cntrl3.L2cache.demand_accesses      1477279                       # Number of cache demand accesses
system.ruby.l2_cntrl2.L2cache.demand_hits      1543962                       # Number of cache demand hits
system.ruby.l2_cntrl2.L2cache.demand_misses        14618                       # Number of cache demand misses
system.ruby.l2_cntrl2.L2cache.demand_accesses      1558580                       # Number of cache demand accesses
system.ruby.l1_cntrl8.L1Dcache.demand_hits     68579427                       # Number of cache demand hits
system.ruby.l1_cntrl8.L1Dcache.demand_misses       941936                       # Number of cache demand misses
system.ruby.l1_cntrl8.L1Dcache.demand_accesses     69521363                       # Number of cache demand accesses
system.ruby.l1_cntrl8.L1Icache.demand_hits    174063408                       # Number of cache demand hits
system.ruby.l1_cntrl8.L1Icache.demand_misses          538                       # Number of cache demand misses
system.ruby.l1_cntrl8.L1Icache.demand_accesses    174063946                       # Number of cache demand accesses
system.ruby.l1_cntrl8.prefetcher.miss_observed            0                       # number of misses observed
system.ruby.l1_cntrl8.prefetcher.allocated_streams            0                       # number of streams allocated for prefetching
system.ruby.l1_cntrl8.prefetcher.prefetches_requested            0                       # number of prefetch requests made
system.ruby.l1_cntrl8.prefetcher.prefetches_accepted            0                       # number of prefetch requests accepted
system.ruby.l1_cntrl8.prefetcher.dropped_prefetches            0                       # number of prefetch requests dropped
system.ruby.l1_cntrl8.prefetcher.hits               0                       # number of prefetched blocks accessed
system.ruby.l1_cntrl8.prefetcher.partial_hits            0                       # number of misses observed for a block being prefetched
system.ruby.l1_cntrl8.prefetcher.pages_crossed            0                       # number of prefetches across pages
system.ruby.l1_cntrl8.prefetcher.misses_on_prefetched_blocks            0                       # number of misses for blocks that were prefetched, yet missed
system.ruby.l1_cntrl9.L1Dcache.demand_hits     67323406                       # Number of cache demand hits
system.ruby.l1_cntrl9.L1Dcache.demand_misses      1177053                       # Number of cache demand misses
system.ruby.l1_cntrl9.L1Dcache.demand_accesses     68500459                       # Number of cache demand accesses
system.ruby.l1_cntrl9.L1Icache.demand_hits    174150154                       # Number of cache demand hits
system.ruby.l1_cntrl9.L1Icache.demand_misses          532                       # Number of cache demand misses
system.ruby.l1_cntrl9.L1Icache.demand_accesses    174150686                       # Number of cache demand accesses
system.ruby.l1_cntrl9.prefetcher.miss_observed            0                       # number of misses observed
system.ruby.l1_cntrl9.prefetcher.allocated_streams            0                       # number of streams allocated for prefetching
system.ruby.l1_cntrl9.prefetcher.prefetches_requested            0                       # number of prefetch requests made
system.ruby.l1_cntrl9.prefetcher.prefetches_accepted            0                       # number of prefetch requests accepted
system.ruby.l1_cntrl9.prefetcher.dropped_prefetches            0                       # number of prefetch requests dropped
system.ruby.l1_cntrl9.prefetcher.hits               0                       # number of prefetched blocks accessed
system.ruby.l1_cntrl9.prefetcher.partial_hits            0                       # number of misses observed for a block being prefetched
system.ruby.l1_cntrl9.prefetcher.pages_crossed            0                       # number of prefetches across pages
system.ruby.l1_cntrl9.prefetcher.misses_on_prefetched_blocks            0                       # number of misses for blocks that were prefetched, yet missed
system.ruby.l2_cntrl7.L2cache.demand_hits       759564                       # Number of cache demand hits
system.ruby.l2_cntrl7.L2cache.demand_misses        12054                       # Number of cache demand misses
system.ruby.l2_cntrl7.L2cache.demand_accesses       771618                       # Number of cache demand accesses
system.ruby.l2_cntrl6.L2cache.demand_hits      1629944                       # Number of cache demand hits
system.ruby.l2_cntrl6.L2cache.demand_misses        14534                       # Number of cache demand misses
system.ruby.l2_cntrl6.L2cache.demand_accesses      1644478                       # Number of cache demand accesses
system.ruby.l1_cntrl14.L1Dcache.demand_hits     67833754                       # Number of cache demand hits
system.ruby.l1_cntrl14.L1Dcache.demand_misses      1101682                       # Number of cache demand misses
system.ruby.l1_cntrl14.L1Dcache.demand_accesses     68935436                       # Number of cache demand accesses
system.ruby.l1_cntrl14.L1Icache.demand_hits    173997847                       # Number of cache demand hits
system.ruby.l1_cntrl14.L1Icache.demand_misses          547                       # Number of cache demand misses
system.ruby.l1_cntrl14.L1Icache.demand_accesses    173998394                       # Number of cache demand accesses
system.ruby.l1_cntrl14.prefetcher.miss_observed            0                       # number of misses observed
system.ruby.l1_cntrl14.prefetcher.allocated_streams            0                       # number of streams allocated for prefetching
system.ruby.l1_cntrl14.prefetcher.prefetches_requested            0                       # number of prefetch requests made
system.ruby.l1_cntrl14.prefetcher.prefetches_accepted            0                       # number of prefetch requests accepted
system.ruby.l1_cntrl14.prefetcher.dropped_prefetches            0                       # number of prefetch requests dropped
system.ruby.l1_cntrl14.prefetcher.hits              0                       # number of prefetched blocks accessed
system.ruby.l1_cntrl14.prefetcher.partial_hits            0                       # number of misses observed for a block being prefetched
system.ruby.l1_cntrl14.prefetcher.pages_crossed            0                       # number of prefetches across pages
system.ruby.l1_cntrl14.prefetcher.misses_on_prefetched_blocks            0                       # number of misses for blocks that were prefetched, yet missed
system.ruby.l1_cntrl15.L1Dcache.demand_hits     68161895                       # Number of cache demand hits
system.ruby.l1_cntrl15.L1Dcache.demand_misses      1024978                       # Number of cache demand misses
system.ruby.l1_cntrl15.L1Dcache.demand_accesses     69186873                       # Number of cache demand accesses
system.ruby.l1_cntrl15.L1Icache.demand_hits    174044859                       # Number of cache demand hits
system.ruby.l1_cntrl15.L1Icache.demand_misses          545                       # Number of cache demand misses
system.ruby.l1_cntrl15.L1Icache.demand_accesses    174045404                       # Number of cache demand accesses
system.ruby.l1_cntrl15.prefetcher.miss_observed            0                       # number of misses observed
system.ruby.l1_cntrl15.prefetcher.allocated_streams            0                       # number of streams allocated for prefetching
system.ruby.l1_cntrl15.prefetcher.prefetches_requested            0                       # number of prefetch requests made
system.ruby.l1_cntrl15.prefetcher.prefetches_accepted            0                       # number of prefetch requests accepted
system.ruby.l1_cntrl15.prefetcher.dropped_prefetches            0                       # number of prefetch requests dropped
system.ruby.l1_cntrl15.prefetcher.hits              0                       # number of prefetched blocks accessed
system.ruby.l1_cntrl15.prefetcher.partial_hits            0                       # number of misses observed for a block being prefetched
system.ruby.l1_cntrl15.prefetcher.pages_crossed            0                       # number of prefetches across pages
system.ruby.l1_cntrl15.prefetcher.misses_on_prefetched_blocks            0                       # number of misses for blocks that were prefetched, yet missed
system.ruby.l1_cntrl12.L1Dcache.demand_hits     65557115                       # Number of cache demand hits
system.ruby.l1_cntrl12.L1Dcache.demand_misses      1524893                       # Number of cache demand misses
system.ruby.l1_cntrl12.L1Dcache.demand_accesses     67082008                       # Number of cache demand accesses
system.ruby.l1_cntrl12.L1Icache.demand_hits    174147819                       # Number of cache demand hits
system.ruby.l1_cntrl12.L1Icache.demand_misses          568                       # Number of cache demand misses
system.ruby.l1_cntrl12.L1Icache.demand_accesses    174148387                       # Number of cache demand accesses
system.ruby.l1_cntrl12.prefetcher.miss_observed            0                       # number of misses observed
system.ruby.l1_cntrl12.prefetcher.allocated_streams            0                       # number of streams allocated for prefetching
system.ruby.l1_cntrl12.prefetcher.prefetches_requested            0                       # number of prefetch requests made
system.ruby.l1_cntrl12.prefetcher.prefetches_accepted            0                       # number of prefetch requests accepted
system.ruby.l1_cntrl12.prefetcher.dropped_prefetches            0                       # number of prefetch requests dropped
system.ruby.l1_cntrl12.prefetcher.hits              0                       # number of prefetched blocks accessed
system.ruby.l1_cntrl12.prefetcher.partial_hits            0                       # number of misses observed for a block being prefetched
system.ruby.l1_cntrl12.prefetcher.pages_crossed            0                       # number of prefetches across pages
system.ruby.l1_cntrl12.prefetcher.misses_on_prefetched_blocks            0                       # number of misses for blocks that were prefetched, yet missed
system.ruby.l1_cntrl13.L1Dcache.demand_hits     65948966                       # Number of cache demand hits
system.ruby.l1_cntrl13.L1Dcache.demand_misses      1440747                       # Number of cache demand misses
system.ruby.l1_cntrl13.L1Dcache.demand_accesses     67389713                       # Number of cache demand accesses
system.ruby.l1_cntrl13.L1Icache.demand_hits    174188552                       # Number of cache demand hits
system.ruby.l1_cntrl13.L1Icache.demand_misses          516                       # Number of cache demand misses
system.ruby.l1_cntrl13.L1Icache.demand_accesses    174189068                       # Number of cache demand accesses
system.ruby.l1_cntrl13.prefetcher.miss_observed            0                       # number of misses observed
system.ruby.l1_cntrl13.prefetcher.allocated_streams            0                       # number of streams allocated for prefetching
system.ruby.l1_cntrl13.prefetcher.prefetches_requested            0                       # number of prefetch requests made
system.ruby.l1_cntrl13.prefetcher.prefetches_accepted            0                       # number of prefetch requests accepted
system.ruby.l1_cntrl13.prefetcher.dropped_prefetches            0                       # number of prefetch requests dropped
system.ruby.l1_cntrl13.prefetcher.hits              0                       # number of prefetched blocks accessed
system.ruby.l1_cntrl13.prefetcher.partial_hits            0                       # number of misses observed for a block being prefetched
system.ruby.l1_cntrl13.prefetcher.pages_crossed            0                       # number of prefetches across pages
system.ruby.l1_cntrl13.prefetcher.misses_on_prefetched_blocks            0                       # number of misses for blocks that were prefetched, yet missed
system.ruby.l1_cntrl10.L1Dcache.demand_hits     65969435                       # Number of cache demand hits
system.ruby.l1_cntrl10.L1Dcache.demand_misses      1447114                       # Number of cache demand misses
system.ruby.l1_cntrl10.L1Dcache.demand_accesses     67416549                       # Number of cache demand accesses
system.ruby.l1_cntrl10.L1Icache.demand_hits    174124224                       # Number of cache demand hits
system.ruby.l1_cntrl10.L1Icache.demand_misses          560                       # Number of cache demand misses
system.ruby.l1_cntrl10.L1Icache.demand_accesses    174124784                       # Number of cache demand accesses
system.ruby.l1_cntrl10.prefetcher.miss_observed            0                       # number of misses observed
system.ruby.l1_cntrl10.prefetcher.allocated_streams            0                       # number of streams allocated for prefetching
system.ruby.l1_cntrl10.prefetcher.prefetches_requested            0                       # number of prefetch requests made
system.ruby.l1_cntrl10.prefetcher.prefetches_accepted            0                       # number of prefetch requests accepted
system.ruby.l1_cntrl10.prefetcher.dropped_prefetches            0                       # number of prefetch requests dropped
system.ruby.l1_cntrl10.prefetcher.hits              0                       # number of prefetched blocks accessed
system.ruby.l1_cntrl10.prefetcher.partial_hits            0                       # number of misses observed for a block being prefetched
system.ruby.l1_cntrl10.prefetcher.pages_crossed            0                       # number of prefetches across pages
system.ruby.l1_cntrl10.prefetcher.misses_on_prefetched_blocks            0                       # number of misses for blocks that were prefetched, yet missed
system.ruby.l1_cntrl11.L1Dcache.demand_hits     65960060                       # Number of cache demand hits
system.ruby.l1_cntrl11.L1Dcache.demand_misses      1461567                       # Number of cache demand misses
system.ruby.l1_cntrl11.L1Dcache.demand_accesses     67421627                       # Number of cache demand accesses
system.ruby.l1_cntrl11.L1Icache.demand_hits    174076974                       # Number of cache demand hits
system.ruby.l1_cntrl11.L1Icache.demand_misses          557                       # Number of cache demand misses
system.ruby.l1_cntrl11.L1Icache.demand_accesses    174077531                       # Number of cache demand accesses
system.ruby.l1_cntrl11.prefetcher.miss_observed            0                       # number of misses observed
system.ruby.l1_cntrl11.prefetcher.allocated_streams            0                       # number of streams allocated for prefetching
system.ruby.l1_cntrl11.prefetcher.prefetches_requested            0                       # number of prefetch requests made
system.ruby.l1_cntrl11.prefetcher.prefetches_accepted            0                       # number of prefetch requests accepted
system.ruby.l1_cntrl11.prefetcher.dropped_prefetches            0                       # number of prefetch requests dropped
system.ruby.l1_cntrl11.prefetcher.hits              0                       # number of prefetched blocks accessed
system.ruby.l1_cntrl11.prefetcher.partial_hits            0                       # number of misses observed for a block being prefetched
system.ruby.l1_cntrl11.prefetcher.pages_crossed            0                       # number of prefetches across pages
system.ruby.l1_cntrl11.prefetcher.misses_on_prefetched_blocks            0                       # number of misses for blocks that were prefetched, yet missed
system.ruby.l2_cntrl9.L2cache.demand_hits      1067303                       # Number of cache demand hits
system.ruby.l2_cntrl9.L2cache.demand_misses        10937                       # Number of cache demand misses
system.ruby.l2_cntrl9.L2cache.demand_accesses      1078240                       # Number of cache demand accesses
system.ruby.l2_cntrl8.L2cache.demand_hits      1491252                       # Number of cache demand hits
system.ruby.l2_cntrl8.L2cache.demand_misses        13470                       # Number of cache demand misses
system.ruby.l2_cntrl8.L2cache.demand_accesses      1504722                       # Number of cache demand accesses
system.ruby.dir_cntrl0.memBuffer.memReq          7420                       # Total number of memory requests
system.ruby.dir_cntrl0.memBuffer.memRead         5836                       # Number of memory reads
system.ruby.dir_cntrl0.memBuffer.memWrite         1584                       # Number of memory writes
system.ruby.dir_cntrl0.memBuffer.memRefresh       105511                       # Number of memory refreshes
system.ruby.dir_cntrl0.memBuffer.memWaitCycles        15677                       # Delay stalled at the head of the bank queue
system.ruby.dir_cntrl0.memBuffer.memInputQ            4                       # Delay in the input queue
system.ruby.dir_cntrl0.memBuffer.memBankQ          348                       # Delay behind the head of the bank queue
system.ruby.dir_cntrl0.memBuffer.totalStalls        16029                       # Total number of stall cycles
system.ruby.dir_cntrl0.memBuffer.stallsPerReq     2.160243                       # Expected number of stall cycles per request
system.ruby.dir_cntrl0.memBuffer.memBankBusy        15181                       # memory stalls due to busy bank
system.ruby.dir_cntrl0.memBuffer.memBusBusy          417                       # memory stalls due to busy bus
system.ruby.dir_cntrl0.memBuffer.memReadWriteBusy            2                       # memory stalls due to read write turnaround
system.ruby.dir_cntrl0.memBuffer.memDataBusBusy            2                       # memory stalls due to read read turnaround
system.ruby.dir_cntrl0.memBuffer.memArbWait           75                       # memory stalls due to arbitration
system.ruby.dir_cntrl0.memBuffer.memBankCount |         764     10.30%     10.30% |           0      0.00%     10.30% |           0      0.00%     10.30% |           0      0.00%     10.30% |         710      9.57%     19.87% |           0      0.00%     19.87% |           0      0.00%     19.87% |           0      0.00%     19.87% |         654      8.81%     28.68% |           0      0.00%     28.68% |           0      0.00%     28.68% |           0      0.00%     28.68% |         571      7.70%     36.37% |           0      0.00%     36.37% |           0      0.00%     36.37% |           0      0.00%     36.37% |        1381     18.61%     54.99% |           0      0.00%     54.99% |           0      0.00%     54.99% |           0      0.00%     54.99% |        1718     23.15%     78.14% |           0      0.00%     78.14% |           0      0.00%     78.14% |           0      0.00%     78.14% |         878     11.83%     89.97% |           0      0.00%     89.97% |           0      0.00%     89.97% |           0      0.00%     89.97% |         744     10.03%    100.00% |           0      0.00%    100.00% |           0      0.00%    100.00% |           0      0.00%    100.00% # Number of accesses per bank
system.ruby.dir_cntrl0.memBuffer.memBankCount::total         7420                       # Number of accesses per bank

system.ruby.dir_cntrl1.memBuffer.memReq          6757                       # Total number of memory requests
system.ruby.dir_cntrl1.memBuffer.memRead         5329                       # Number of memory reads
system.ruby.dir_cntrl1.memBuffer.memWrite         1428                       # Number of memory writes
system.ruby.dir_cntrl1.memBuffer.memRefresh        99931                       # Number of memory refreshes
system.ruby.dir_cntrl1.memBuffer.memWaitCycles        14187                       # Delay stalled at the head of the bank queue
system.ruby.dir_cntrl1.memBuffer.memBankQ          191                       # Delay behind the head of the bank queue
system.ruby.dir_cntrl1.memBuffer.totalStalls        14378                       # Total number of stall cycles
system.ruby.dir_cntrl1.memBuffer.stallsPerReq     2.127867                       # Expected number of stall cycles per request
system.ruby.dir_cntrl1.memBuffer.memBankBusy        13759                       # memory stalls due to busy bank
system.ruby.dir_cntrl1.memBuffer.memBusBusy          371                       # memory stalls due to busy bus
system.ruby.dir_cntrl1.memBuffer.memReadWriteBusy            1                       # memory stalls due to read write turnaround
system.ruby.dir_cntrl1.memBuffer.memDataBusBusy            4                       # memory stalls due to read read turnaround
system.ruby.dir_cntrl1.memBuffer.memArbWait           52                       # memory stalls due to arbitration
system.ruby.dir_cntrl1.memBuffer.memBankCount |         713     10.55%     10.55% |           0      0.00%     10.55% |           0      0.00%     10.55% |           0      0.00%     10.55% |         646      9.56%     20.11% |           0      0.00%     20.11% |           0      0.00%     20.11% |           0      0.00%     20.11% |         632      9.35%     29.47% |           0      0.00%     29.47% |           0      0.00%     29.47% |           0      0.00%     29.47% |         596      8.82%     38.29% |           0      0.00%     38.29% |           0      0.00%     38.29% |           0      0.00%     38.29% |        1328     19.65%     57.94% |           0      0.00%     57.94% |           0      0.00%     57.94% |           0      0.00%     57.94% |        1342     19.86%     77.80% |           0      0.00%     77.80% |           0      0.00%     77.80% |           0      0.00%     77.80% |         795     11.77%     89.57% |           0      0.00%     89.57% |           0      0.00%     89.57% |           0      0.00%     89.57% |         705     10.43%    100.00% |           0      0.00%    100.00% |           0      0.00%    100.00% |           0      0.00%    100.00% # Number of accesses per bank
system.ruby.dir_cntrl1.memBuffer.memBankCount::total         6757                       # Number of accesses per bank

system.ruby.dir_cntrl2.memBuffer.memReq          7207                       # Total number of memory requests
system.ruby.dir_cntrl2.memBuffer.memRead         5689                       # Number of memory reads
system.ruby.dir_cntrl2.memBuffer.memWrite         1518                       # Number of memory writes
system.ruby.dir_cntrl2.memBuffer.memRefresh       102902                       # Number of memory refreshes
system.ruby.dir_cntrl2.memBuffer.memWaitCycles        14688                       # Delay stalled at the head of the bank queue
system.ruby.dir_cntrl2.memBuffer.memInputQ            5                       # Delay in the input queue
system.ruby.dir_cntrl2.memBuffer.memBankQ          212                       # Delay behind the head of the bank queue
system.ruby.dir_cntrl2.memBuffer.totalStalls        14905                       # Total number of stall cycles
system.ruby.dir_cntrl2.memBuffer.stallsPerReq     2.068128                       # Expected number of stall cycles per request
system.ruby.dir_cntrl2.memBuffer.memBankBusy        14198                       # memory stalls due to busy bank
system.ruby.dir_cntrl2.memBuffer.memBusBusy          420                       # memory stalls due to busy bus
system.ruby.dir_cntrl2.memBuffer.memReadWriteBusy            2                       # memory stalls due to read write turnaround
system.ruby.dir_cntrl2.memBuffer.memDataBusBusy            4                       # memory stalls due to read read turnaround
system.ruby.dir_cntrl2.memBuffer.memArbWait           64                       # memory stalls due to arbitration
system.ruby.dir_cntrl2.memBuffer.memBankCount |         715      9.92%      9.92% |           0      0.00%      9.92% |           0      0.00%      9.92% |           0      0.00%      9.92% |         669      9.28%     19.20% |           0      0.00%     19.20% |           0      0.00%     19.20% |           0      0.00%     19.20% |         658      9.13%     28.33% |           0      0.00%     28.33% |           0      0.00%     28.33% |           0      0.00%     28.33% |         600      8.33%     36.66% |           0      0.00%     36.66% |           0      0.00%     36.66% |           0      0.00%     36.66% |        1344     18.65%     55.31% |           0      0.00%     55.31% |           0      0.00%     55.31% |           0      0.00%     55.31% |        1727     23.96%     79.27% |           0      0.00%     79.27% |           0      0.00%     79.27% |           0      0.00%     79.27% |         824     11.43%     90.70% |           0      0.00%     90.70% |           0      0.00%     90.70% |           0      0.00%     90.70% |         670      9.30%    100.00% |           0      0.00%    100.00% |           0      0.00%    100.00% |           0      0.00%    100.00% # Number of accesses per bank
system.ruby.dir_cntrl2.memBuffer.memBankCount::total         7207                       # Number of accesses per bank

system.ruby.dir_cntrl3.memBuffer.memReq          6575                       # Total number of memory requests
system.ruby.dir_cntrl3.memBuffer.memRead         5230                       # Number of memory reads
system.ruby.dir_cntrl3.memBuffer.memWrite         1345                       # Number of memory writes
system.ruby.dir_cntrl3.memBuffer.memRefresh        98090                       # Number of memory refreshes
system.ruby.dir_cntrl3.memBuffer.memWaitCycles        13332                       # Delay stalled at the head of the bank queue
system.ruby.dir_cntrl3.memBuffer.memInputQ            1                       # Delay in the input queue
system.ruby.dir_cntrl3.memBuffer.memBankQ          110                       # Delay behind the head of the bank queue
system.ruby.dir_cntrl3.memBuffer.totalStalls        13443                       # Total number of stall cycles
system.ruby.dir_cntrl3.memBuffer.stallsPerReq     2.044563                       # Expected number of stall cycles per request
system.ruby.dir_cntrl3.memBuffer.memBankBusy        12927                       # memory stalls due to busy bank
system.ruby.dir_cntrl3.memBuffer.memBusBusy          361                       # memory stalls due to busy bus
system.ruby.dir_cntrl3.memBuffer.memDataBusBusy            3                       # memory stalls due to read read turnaround
system.ruby.dir_cntrl3.memBuffer.memArbWait           41                       # memory stalls due to arbitration
system.ruby.dir_cntrl3.memBuffer.memBankCount |         655      9.96%      9.96% |           0      0.00%      9.96% |           0      0.00%      9.96% |           0      0.00%      9.96% |         615      9.35%     19.32% |           0      0.00%     19.32% |           0      0.00%     19.32% |           0      0.00%     19.32% |         598      9.10%     28.41% |           0      0.00%     28.41% |           0      0.00%     28.41% |           0      0.00%     28.41% |         560      8.52%     36.93% |           0      0.00%     36.93% |           0      0.00%     36.93% |           0      0.00%     36.93% |        1292     19.65%     56.58% |           0      0.00%     56.58% |           0      0.00%     56.58% |           0      0.00%     56.58% |        1424     21.66%     78.24% |           0      0.00%     78.24% |           0      0.00%     78.24% |           0      0.00%     78.24% |         805     12.24%     90.48% |           0      0.00%     90.48% |           0      0.00%     90.48% |           0      0.00%     90.48% |         626      9.52%    100.00% |           0      0.00%    100.00% |           0      0.00%    100.00% |           0      0.00%    100.00% # Number of accesses per bank
system.ruby.dir_cntrl3.memBuffer.memBankCount::total         6575                       # Number of accesses per bank

system.ruby.dir_cntrl4.memBuffer.memReq          6953                       # Total number of memory requests
system.ruby.dir_cntrl4.memBuffer.memRead         5532                       # Number of memory reads
system.ruby.dir_cntrl4.memBuffer.memWrite         1421                       # Number of memory writes
system.ruby.dir_cntrl4.memBuffer.memRefresh       100743                       # Number of memory refreshes
system.ruby.dir_cntrl4.memBuffer.memWaitCycles        13895                       # Delay stalled at the head of the bank queue
system.ruby.dir_cntrl4.memBuffer.memInputQ            5                       # Delay in the input queue
system.ruby.dir_cntrl4.memBuffer.memBankQ          152                       # Delay behind the head of the bank queue
system.ruby.dir_cntrl4.memBuffer.totalStalls        14052                       # Total number of stall cycles
system.ruby.dir_cntrl4.memBuffer.stallsPerReq     2.020998                       # Expected number of stall cycles per request
system.ruby.dir_cntrl4.memBuffer.memBankBusy        13419                       # memory stalls due to busy bank
system.ruby.dir_cntrl4.memBuffer.memBusBusy          411                       # memory stalls due to busy bus
system.ruby.dir_cntrl4.memBuffer.memDataBusBusy            5                       # memory stalls due to read read turnaround
system.ruby.dir_cntrl4.memBuffer.memArbWait           60                       # memory stalls due to arbitration
system.ruby.dir_cntrl4.memBuffer.memBankCount |           0      0.00%      0.00% |         643      9.25%      9.25% |           0      0.00%      9.25% |           0      0.00%      9.25% |           0      0.00%      9.25% |         648      9.32%     18.57% |           0      0.00%     18.57% |           0      0.00%     18.57% |           0      0.00%     18.57% |         674      9.69%     28.26% |           0      0.00%     28.26% |           0      0.00%     28.26% |           0      0.00%     28.26% |         580      8.34%     36.60% |           0      0.00%     36.60% |           0      0.00%     36.60% |           0      0.00%     36.60% |        1453     20.90%     57.50% |           0      0.00%     57.50% |           0      0.00%     57.50% |           0      0.00%     57.50% |        1473     21.19%     78.69% |           0      0.00%     78.69% |           0      0.00%     78.69% |           0      0.00%     78.69% |         809     11.64%     90.32% |           0      0.00%     90.32% |           0      0.00%     90.32% |           0      0.00%     90.32% |         673      9.68%    100.00% |           0      0.00%    100.00% |           0      0.00%    100.00% # Number of accesses per bank
system.ruby.dir_cntrl4.memBuffer.memBankCount::total         6953                       # Number of accesses per bank

system.ruby.dir_cntrl5.memBuffer.memReq          6580                       # Total number of memory requests
system.ruby.dir_cntrl5.memBuffer.memRead         5230                       # Number of memory reads
system.ruby.dir_cntrl5.memBuffer.memWrite         1350                       # Number of memory writes
system.ruby.dir_cntrl5.memBuffer.memRefresh        98112                       # Number of memory refreshes
system.ruby.dir_cntrl5.memBuffer.memWaitCycles        13144                       # Delay stalled at the head of the bank queue
system.ruby.dir_cntrl5.memBuffer.memInputQ            4                       # Delay in the input queue
system.ruby.dir_cntrl5.memBuffer.memBankQ           98                       # Delay behind the head of the bank queue
system.ruby.dir_cntrl5.memBuffer.totalStalls        13246                       # Total number of stall cycles
system.ruby.dir_cntrl5.memBuffer.stallsPerReq     2.013070                       # Expected number of stall cycles per request
system.ruby.dir_cntrl5.memBuffer.memBankBusy        12738                       # memory stalls due to busy bank
system.ruby.dir_cntrl5.memBuffer.memBusBusy          356                       # memory stalls due to busy bus
system.ruby.dir_cntrl5.memBuffer.memReadWriteBusy            2                       # memory stalls due to read write turnaround
system.ruby.dir_cntrl5.memBuffer.memDataBusBusy            4                       # memory stalls due to read read turnaround
system.ruby.dir_cntrl5.memBuffer.memArbWait           44                       # memory stalls due to arbitration
system.ruby.dir_cntrl5.memBuffer.memBankCount |           0      0.00%      0.00% |         620      9.42%      9.42% |           0      0.00%      9.42% |           0      0.00%      9.42% |           0      0.00%      9.42% |         622      9.45%     18.88% |           0      0.00%     18.88% |           0      0.00%     18.88% |           0      0.00%     18.88% |         606      9.21%     28.09% |           0      0.00%     28.09% |           0      0.00%     28.09% |           0      0.00%     28.09% |         565      8.59%     36.67% |           0      0.00%     36.67% |           0      0.00%     36.67% |           0      0.00%     36.67% |        1263     19.19%     55.87% |           0      0.00%     55.87% |           0      0.00%     55.87% |           0      0.00%     55.87% |        1500     22.80%     78.66% |           0      0.00%     78.66% |           0      0.00%     78.66% |           0      0.00%     78.66% |         779     11.84%     90.50% |           0      0.00%     90.50% |           0      0.00%     90.50% |           0      0.00%     90.50% |         625      9.50%    100.00% |           0      0.00%    100.00% |           0      0.00%    100.00% # Number of accesses per bank
system.ruby.dir_cntrl5.memBuffer.memBankCount::total         6580                       # Number of accesses per bank

system.ruby.dir_cntrl6.memBuffer.memReq          7083                       # Total number of memory requests
system.ruby.dir_cntrl6.memBuffer.memRead         5636                       # Number of memory reads
system.ruby.dir_cntrl6.memBuffer.memWrite         1447                       # Number of memory writes
system.ruby.dir_cntrl6.memBuffer.memRefresh       102914                       # Number of memory refreshes
system.ruby.dir_cntrl6.memBuffer.memWaitCycles        14241                       # Delay stalled at the head of the bank queue
system.ruby.dir_cntrl6.memBuffer.memInputQ            2                       # Delay in the input queue
system.ruby.dir_cntrl6.memBuffer.memBankQ          169                       # Delay behind the head of the bank queue
system.ruby.dir_cntrl6.memBuffer.totalStalls        14412                       # Total number of stall cycles
system.ruby.dir_cntrl6.memBuffer.stallsPerReq     2.034731                       # Expected number of stall cycles per request
system.ruby.dir_cntrl6.memBuffer.memBankBusy        13776                       # memory stalls due to busy bank
system.ruby.dir_cntrl6.memBuffer.memBusBusy          406                       # memory stalls due to busy bus
system.ruby.dir_cntrl6.memBuffer.memArbWait           59                       # memory stalls due to arbitration
system.ruby.dir_cntrl6.memBuffer.memBankCount |           0      0.00%      0.00% |         632      8.92%      8.92% |           0      0.00%      8.92% |           0      0.00%      8.92% |           0      0.00%      8.92% |         623      8.80%     17.72% |           0      0.00%     17.72% |           0      0.00%     17.72% |           0      0.00%     17.72% |         631      8.91%     26.63% |           0      0.00%     26.63% |           0      0.00%     26.63% |           0      0.00%     26.63% |         568      8.02%     34.65% |           0      0.00%     34.65% |           0      0.00%     34.65% |           0      0.00%     34.65% |        1308     18.47%     53.11% |           0      0.00%     53.11% |           0      0.00%     53.11% |           0      0.00%     53.11% |        1844     26.03%     79.15% |           0      0.00%     79.15% |           0      0.00%     79.15% |           0      0.00%     79.15% |         809     11.42%     90.57% |           0      0.00%     90.57% |           0      0.00%     90.57% |           0      0.00%     90.57% |         668      9.43%    100.00% |           0      0.00%    100.00% |           0      0.00%    100.00% # Number of accesses per bank
system.ruby.dir_cntrl6.memBuffer.memBankCount::total         7083                       # Number of accesses per bank

system.ruby.dir_cntrl7.memBuffer.memReq          6729                       # Total number of memory requests
system.ruby.dir_cntrl7.memBuffer.memRead         5294                       # Number of memory reads
system.ruby.dir_cntrl7.memBuffer.memWrite         1435                       # Number of memory writes
system.ruby.dir_cntrl7.memBuffer.memRefresh       100493                       # Number of memory refreshes
system.ruby.dir_cntrl7.memBuffer.memWaitCycles        14000                       # Delay stalled at the head of the bank queue
system.ruby.dir_cntrl7.memBuffer.memBankQ           85                       # Delay behind the head of the bank queue
system.ruby.dir_cntrl7.memBuffer.totalStalls        14085                       # Total number of stall cycles
system.ruby.dir_cntrl7.memBuffer.stallsPerReq     2.093179                       # Expected number of stall cycles per request
system.ruby.dir_cntrl7.memBuffer.memBankBusy        13555                       # memory stalls due to busy bank
system.ruby.dir_cntrl7.memBuffer.memBusBusy          390                       # memory stalls due to busy bus
system.ruby.dir_cntrl7.memBuffer.memReadWriteBusy            2                       # memory stalls due to read write turnaround
system.ruby.dir_cntrl7.memBuffer.memDataBusBusy            2                       # memory stalls due to read read turnaround
system.ruby.dir_cntrl7.memBuffer.memArbWait           51                       # memory stalls due to arbitration
system.ruby.dir_cntrl7.memBuffer.memBankCount |           0      0.00%      0.00% |         652      9.69%      9.69% |           0      0.00%      9.69% |           0      0.00%      9.69% |           0      0.00%      9.69% |         620      9.21%     18.90% |           0      0.00%     18.90% |           0      0.00%     18.90% |           0      0.00%     18.90% |         620      9.21%     28.12% |           0      0.00%     28.12% |           0      0.00%     28.12% |           0      0.00%     28.12% |         565      8.40%     36.51% |           0      0.00%     36.51% |           0      0.00%     36.51% |           0      0.00%     36.51% |        1366     20.30%     56.81% |           0      0.00%     56.81% |           0      0.00%     56.81% |           0      0.00%     56.81% |        1542     22.92%     79.73% |           0      0.00%     79.73% |           0      0.00%     79.73% |           0      0.00%     79.73% |         724     10.76%     90.49% |           0      0.00%     90.49% |           0      0.00%     90.49% |           0      0.00%     90.49% |         640      9.51%    100.00% |           0      0.00%    100.00% |           0      0.00%    100.00% # Number of accesses per bank
system.ruby.dir_cntrl7.memBuffer.memBankCount::total         6729                       # Number of accesses per bank

system.ruby.dir_cntrl8.memBuffer.memReq          7324                       # Total number of memory requests
system.ruby.dir_cntrl8.memBuffer.memRead         5781                       # Number of memory reads
system.ruby.dir_cntrl8.memBuffer.memWrite         1543                       # Number of memory writes
system.ruby.dir_cntrl8.memBuffer.memRefresh       105744                       # Number of memory refreshes
system.ruby.dir_cntrl8.memBuffer.memWaitCycles        15051                       # Delay stalled at the head of the bank queue
system.ruby.dir_cntrl8.memBuffer.memInputQ           17                       # Delay in the input queue
system.ruby.dir_cntrl8.memBuffer.memBankQ         1304                       # Delay behind the head of the bank queue
system.ruby.dir_cntrl8.memBuffer.totalStalls        16372                       # Total number of stall cycles
system.ruby.dir_cntrl8.memBuffer.stallsPerReq     2.235390                       # Expected number of stall cycles per request
system.ruby.dir_cntrl8.memBuffer.memBankBusy        14574                       # memory stalls due to busy bank
system.ruby.dir_cntrl8.memBuffer.memBusBusy          411                       # memory stalls due to busy bus
system.ruby.dir_cntrl8.memBuffer.memReadWriteBusy            4                       # memory stalls due to read write turnaround
system.ruby.dir_cntrl8.memBuffer.memDataBusBusy            3                       # memory stalls due to read read turnaround
system.ruby.dir_cntrl8.memBuffer.memArbWait           59                       # memory stalls due to arbitration
system.ruby.dir_cntrl8.memBuffer.memBankCount |           0      0.00%      0.00% |           0      0.00%      0.00% |         685      9.35%      9.35% |           0      0.00%      9.35% |           0      0.00%      9.35% |           0      0.00%      9.35% |         687      9.38%     18.73% |           0      0.00%     18.73% |           0      0.00%     18.73% |           0      0.00%     18.73% |         631      8.62%     27.35% |           0      0.00%     27.35% |           0      0.00%     27.35% |           0      0.00%     27.35% |         598      8.16%     35.51% |           0      0.00%     35.51% |           0      0.00%     35.51% |           0      0.00%     35.51% |        1497     20.44%     55.95% |           0      0.00%     55.95% |           0      0.00%     55.95% |           0      0.00%     55.95% |        1787     24.40%     80.35% |           0      0.00%     80.35% |           0      0.00%     80.35% |           0      0.00%     80.35% |         800     10.92%     91.28% |           0      0.00%     91.28% |           0      0.00%     91.28% |           0      0.00%     91.28% |         639      8.72%    100.00% |           0      0.00%    100.00% # Number of accesses per bank
system.ruby.dir_cntrl8.memBuffer.memBankCount::total         7324                       # Number of accesses per bank

system.ruby.dir_cntrl9.memBuffer.memReq          6442                       # Total number of memory requests
system.ruby.dir_cntrl9.memBuffer.memRead         5156                       # Number of memory reads
system.ruby.dir_cntrl9.memBuffer.memWrite         1286                       # Number of memory writes
system.ruby.dir_cntrl9.memBuffer.memRefresh        97000                       # Number of memory refreshes
system.ruby.dir_cntrl9.memBuffer.memWaitCycles        12872                       # Delay stalled at the head of the bank queue
system.ruby.dir_cntrl9.memBuffer.memInputQ            6                       # Delay in the input queue
system.ruby.dir_cntrl9.memBuffer.memBankQ          794                       # Delay behind the head of the bank queue
system.ruby.dir_cntrl9.memBuffer.totalStalls        13672                       # Total number of stall cycles
system.ruby.dir_cntrl9.memBuffer.stallsPerReq     2.122322                       # Expected number of stall cycles per request
system.ruby.dir_cntrl9.memBuffer.memBankBusy        12448                       # memory stalls due to busy bank
system.ruby.dir_cntrl9.memBuffer.memBusBusy          373                       # memory stalls due to busy bus
system.ruby.dir_cntrl9.memBuffer.memReadWriteBusy            2                       # memory stalls due to read write turnaround
system.ruby.dir_cntrl9.memBuffer.memDataBusBusy            3                       # memory stalls due to read read turnaround
system.ruby.dir_cntrl9.memBuffer.memArbWait           46                       # memory stalls due to arbitration
system.ruby.dir_cntrl9.memBuffer.memBankCount |           0      0.00%      0.00% |           0      0.00%      0.00% |         611      9.48%      9.48% |           0      0.00%      9.48% |           0      0.00%      9.48% |           0      0.00%      9.48% |         609      9.45%     18.94% |           0      0.00%     18.94% |           0      0.00%     18.94% |           0      0.00%     18.94% |         604      9.38%     28.31% |           0      0.00%     28.31% |           0      0.00%     28.31% |           0      0.00%     28.31% |         583      9.05%     37.36% |           0      0.00%     37.36% |           0      0.00%     37.36% |           0      0.00%     37.36% |        1242     19.28%     56.64% |           0      0.00%     56.64% |           0      0.00%     56.64% |           0      0.00%     56.64% |        1420     22.04%     78.69% |           0      0.00%     78.69% |           0      0.00%     78.69% |           0      0.00%     78.69% |         757     11.75%     90.44% |           0      0.00%     90.44% |           0      0.00%     90.44% |           0      0.00%     90.44% |         616      9.56%    100.00% |           0      0.00%    100.00% # Number of accesses per bank
system.ruby.dir_cntrl9.memBuffer.memBankCount::total         6442                       # Number of accesses per bank

system.ruby.dir_cntrl10.memBuffer.memReq         7220                       # Total number of memory requests
system.ruby.dir_cntrl10.memBuffer.memRead         5713                       # Number of memory reads
system.ruby.dir_cntrl10.memBuffer.memWrite         1507                       # Number of memory writes
system.ruby.dir_cntrl10.memBuffer.memRefresh       103706                       # Number of memory refreshes
system.ruby.dir_cntrl10.memBuffer.memWaitCycles        14729                       # Delay stalled at the head of the bank queue
system.ruby.dir_cntrl10.memBuffer.memInputQ           21                       # Delay in the input queue
system.ruby.dir_cntrl10.memBuffer.memBankQ         1089                       # Delay behind the head of the bank queue
system.ruby.dir_cntrl10.memBuffer.totalStalls        15839                       # Total number of stall cycles
system.ruby.dir_cntrl10.memBuffer.stallsPerReq     2.193767                       # Expected number of stall cycles per request
system.ruby.dir_cntrl10.memBuffer.memBankBusy        14297                       # memory stalls due to busy bank
system.ruby.dir_cntrl10.memBuffer.memBusBusy          387                       # memory stalls due to busy bus
system.ruby.dir_cntrl10.memBuffer.memDataBusBusy            4                       # memory stalls due to read read turnaround
system.ruby.dir_cntrl10.memBuffer.memArbWait           41                       # memory stalls due to arbitration
system.ruby.dir_cntrl10.memBuffer.memBankCount |           0      0.00%      0.00% |           0      0.00%      0.00% |         668      9.25%      9.25% |           0      0.00%      9.25% |           0      0.00%      9.25% |           0      0.00%      9.25% |         640      8.86%     18.12% |           0      0.00%     18.12% |           0      0.00%     18.12% |           0      0.00%     18.12% |         624      8.64%     26.76% |           0      0.00%     26.76% |           0      0.00%     26.76% |           0      0.00%     26.76% |         593      8.21%     34.97% |           0      0.00%     34.97% |           0      0.00%     34.97% |           0      0.00%     34.97% |        1474     20.42%     55.39% |           0      0.00%     55.39% |           0      0.00%     55.39% |           0      0.00%     55.39% |        1883     26.08%     81.47% |           0      0.00%     81.47% |           0      0.00%     81.47% |           0      0.00%     81.47% |         730     10.11%     91.58% |           0      0.00%     91.58% |           0      0.00%     91.58% |           0      0.00%     91.58% |         608      8.42%    100.00% |           0      0.00%    100.00% # Number of accesses per bank
system.ruby.dir_cntrl10.memBuffer.memBankCount::total         7220                       # Number of accesses per bank

system.ruby.dir_cntrl11.memBuffer.memReq         6458                       # Total number of memory requests
system.ruby.dir_cntrl11.memBuffer.memRead         5153                       # Number of memory reads
system.ruby.dir_cntrl11.memBuffer.memWrite         1305                       # Number of memory writes
system.ruby.dir_cntrl11.memBuffer.memRefresh        96852                       # Number of memory refreshes
system.ruby.dir_cntrl11.memBuffer.memWaitCycles        13051                       # Delay stalled at the head of the bank queue
system.ruby.dir_cntrl11.memBuffer.memInputQ           75                       # Delay in the input queue
system.ruby.dir_cntrl11.memBuffer.memBankQ         1462                       # Delay behind the head of the bank queue
system.ruby.dir_cntrl11.memBuffer.totalStalls        14588                       # Total number of stall cycles
system.ruby.dir_cntrl11.memBuffer.stallsPerReq     2.258904                       # Expected number of stall cycles per request
system.ruby.dir_cntrl11.memBuffer.memBankBusy        12629                       # memory stalls due to busy bank
system.ruby.dir_cntrl11.memBuffer.memBusBusy          366                       # memory stalls due to busy bus
system.ruby.dir_cntrl11.memBuffer.memReadWriteBusy            2                       # memory stalls due to read write turnaround
system.ruby.dir_cntrl11.memBuffer.memArbWait           54                       # memory stalls due to arbitration
system.ruby.dir_cntrl11.memBuffer.memBankCount |           0      0.00%      0.00% |           0      0.00%      0.00% |         617      9.55%      9.55% |           0      0.00%      9.55% |           0      0.00%      9.55% |           0      0.00%      9.55% |         672     10.41%     19.96% |           0      0.00%     19.96% |           0      0.00%     19.96% |           0      0.00%     19.96% |         590      9.14%     29.10% |           0      0.00%     29.10% |           0      0.00%     29.10% |           0      0.00%     29.10% |         578      8.95%     38.05% |           0      0.00%     38.05% |           0      0.00%     38.05% |           0      0.00%     38.05% |        1279     19.80%     57.85% |           0      0.00%     57.85% |           0      0.00%     57.85% |           0      0.00%     57.85% |        1438     22.27%     80.12% |           0      0.00%     80.12% |           0      0.00%     80.12% |           0      0.00%     80.12% |         715     11.07%     91.19% |           0      0.00%     91.19% |           0      0.00%     91.19% |           0      0.00%     91.19% |         569      8.81%    100.00% |           0      0.00%    100.00% # Number of accesses per bank
system.ruby.dir_cntrl11.memBuffer.memBankCount::total         6458                       # Number of accesses per bank

system.ruby.dir_cntrl12.memBuffer.memReq         6996                       # Total number of memory requests
system.ruby.dir_cntrl12.memBuffer.memRead         5601                       # Number of memory reads
system.ruby.dir_cntrl12.memBuffer.memWrite         1395                       # Number of memory writes
system.ruby.dir_cntrl12.memBuffer.memRefresh       103683                       # Number of memory refreshes
system.ruby.dir_cntrl12.memBuffer.memWaitCycles        13931                       # Delay stalled at the head of the bank queue
system.ruby.dir_cntrl12.memBuffer.memInputQ           95                       # Delay in the input queue
system.ruby.dir_cntrl12.memBuffer.memBankQ         1050                       # Delay behind the head of the bank queue
system.ruby.dir_cntrl12.memBuffer.totalStalls        15076                       # Total number of stall cycles
system.ruby.dir_cntrl12.memBuffer.stallsPerReq     2.154946                       # Expected number of stall cycles per request
system.ruby.dir_cntrl12.memBuffer.memBankBusy        13474                       # memory stalls due to busy bank
system.ruby.dir_cntrl12.memBuffer.memBusBusy          393                       # memory stalls due to busy bus
system.ruby.dir_cntrl12.memBuffer.memDataBusBusy            1                       # memory stalls due to read read turnaround
system.ruby.dir_cntrl12.memBuffer.memArbWait           63                       # memory stalls due to arbitration
system.ruby.dir_cntrl12.memBuffer.memBankCount |           0      0.00%      0.00% |           0      0.00%      0.00% |           0      0.00%      0.00% |         644      9.21%      9.21% |           0      0.00%      9.21% |           0      0.00%      9.21% |           0      0.00%      9.21% |         643      9.19%     18.40% |           0      0.00%     18.40% |           0      0.00%     18.40% |           0      0.00%     18.40% |         585      8.36%     26.76% |           0      0.00%     26.76% |           0      0.00%     26.76% |           0      0.00%     26.76% |         591      8.45%     35.21% |           0      0.00%     35.21% |           0      0.00%     35.21% |           0      0.00%     35.21% |        1490     21.30%     56.50% |           0      0.00%     56.50% |           0      0.00%     56.50% |           0      0.00%     56.50% |        1603     22.91%     79.42% |           0      0.00%     79.42% |           0      0.00%     79.42% |           0      0.00%     79.42% |         768     10.98%     90.39% |           0      0.00%     90.39% |           0      0.00%     90.39% |           0      0.00%     90.39% |         672      9.61%    100.00% # Number of accesses per bank
system.ruby.dir_cntrl12.memBuffer.memBankCount::total         6996                       # Number of accesses per bank

system.ruby.dir_cntrl13.memBuffer.memReq         6400                       # Total number of memory requests
system.ruby.dir_cntrl13.memBuffer.memRead         5127                       # Number of memory reads
system.ruby.dir_cntrl13.memBuffer.memWrite         1273                       # Number of memory writes
system.ruby.dir_cntrl13.memBuffer.memRefresh        97382                       # Number of memory refreshes
system.ruby.dir_cntrl13.memBuffer.memWaitCycles        12585                       # Delay stalled at the head of the bank queue
system.ruby.dir_cntrl13.memBuffer.memBankQ           60                       # Delay behind the head of the bank queue
system.ruby.dir_cntrl13.memBuffer.totalStalls        12645                       # Total number of stall cycles
system.ruby.dir_cntrl13.memBuffer.stallsPerReq     1.975781                       # Expected number of stall cycles per request
system.ruby.dir_cntrl13.memBuffer.memBankBusy        12145                       # memory stalls due to busy bank
system.ruby.dir_cntrl13.memBuffer.memBusBusy          381                       # memory stalls due to busy bus
system.ruby.dir_cntrl13.memBuffer.memDataBusBusy            1                       # memory stalls due to read read turnaround
system.ruby.dir_cntrl13.memBuffer.memArbWait           58                       # memory stalls due to arbitration
system.ruby.dir_cntrl13.memBuffer.memBankCount |           0      0.00%      0.00% |           0      0.00%      0.00% |           0      0.00%      0.00% |         646     10.09%     10.09% |           0      0.00%     10.09% |           0      0.00%     10.09% |           0      0.00%     10.09% |         628      9.81%     19.91% |           0      0.00%     19.91% |           0      0.00%     19.91% |           0      0.00%     19.91% |         583      9.11%     29.02% |           0      0.00%     29.02% |           0      0.00%     29.02% |           0      0.00%     29.02% |         574      8.97%     37.98% |           0      0.00%     37.98% |           0      0.00%     37.98% |           0      0.00%     37.98% |        1342     20.97%     58.95% |           0      0.00%     58.95% |           0      0.00%     58.95% |           0      0.00%     58.95% |        1268     19.81%     78.77% |           0      0.00%     78.77% |           0      0.00%     78.77% |           0      0.00%     78.77% |         683     10.67%     89.44% |           0      0.00%     89.44% |           0      0.00%     89.44% |           0      0.00%     89.44% |         676     10.56%    100.00% # Number of accesses per bank
system.ruby.dir_cntrl13.memBuffer.memBankCount::total         6400                       # Number of accesses per bank

system.ruby.dir_cntrl14.memBuffer.memReq         6543                       # Total number of memory requests
system.ruby.dir_cntrl14.memBuffer.memRead         5294                       # Number of memory reads
system.ruby.dir_cntrl14.memBuffer.memWrite         1249                       # Number of memory writes
system.ruby.dir_cntrl14.memBuffer.memRefresh        97625                       # Number of memory refreshes
system.ruby.dir_cntrl14.memBuffer.memWaitCycles        12900                       # Delay stalled at the head of the bank queue
system.ruby.dir_cntrl14.memBuffer.memInputQ          423                       # Delay in the input queue
system.ruby.dir_cntrl14.memBuffer.memBankQ         5576                       # Delay behind the head of the bank queue
system.ruby.dir_cntrl14.memBuffer.totalStalls        18899                       # Total number of stall cycles
system.ruby.dir_cntrl14.memBuffer.stallsPerReq     2.888430                       # Expected number of stall cycles per request
system.ruby.dir_cntrl14.memBuffer.memBankBusy        12456                       # memory stalls due to busy bank
system.ruby.dir_cntrl14.memBuffer.memBusBusy          381                       # memory stalls due to busy bus
system.ruby.dir_cntrl14.memBuffer.memReadWriteBusy            4                       # memory stalls due to read write turnaround
system.ruby.dir_cntrl14.memBuffer.memDataBusBusy            2                       # memory stalls due to read read turnaround
system.ruby.dir_cntrl14.memBuffer.memArbWait           57                       # memory stalls due to arbitration
system.ruby.dir_cntrl14.memBuffer.memBankCount |           0      0.00%      0.00% |           0      0.00%      0.00% |           0      0.00%      0.00% |         652      9.96%      9.96% |           0      0.00%      9.96% |           0      0.00%      9.96% |           0      0.00%      9.96% |         676     10.33%     20.30% |           0      0.00%     20.30% |           0      0.00%     20.30% |           0      0.00%     20.30% |         616      9.41%     29.71% |           0      0.00%     29.71% |           0      0.00%     29.71% |           0      0.00%     29.71% |         578      8.83%     38.55% |           0      0.00%     38.55% |           0      0.00%     38.55% |           0      0.00%     38.55% |        1478     22.59%     61.13% |           0      0.00%     61.13% |           0      0.00%     61.13% |           0      0.00%     61.13% |        1203     18.39%     79.52% |           0      0.00%     79.52% |           0      0.00%     79.52% |           0      0.00%     79.52% |         712     10.88%     90.40% |           0      0.00%     90.40% |           0      0.00%     90.40% |           0      0.00%     90.40% |         628      9.60%    100.00% # Number of accesses per bank
system.ruby.dir_cntrl14.memBuffer.memBankCount::total         6543                       # Number of accesses per bank

system.ruby.dir_cntrl15.memBuffer.memReq         6225                       # Total number of memory requests
system.ruby.dir_cntrl15.memBuffer.memRead         5035                       # Number of memory reads
system.ruby.dir_cntrl15.memBuffer.memWrite         1190                       # Number of memory writes
system.ruby.dir_cntrl15.memBuffer.memRefresh        94454                       # Number of memory refreshes
system.ruby.dir_cntrl15.memBuffer.memWaitCycles        11777                       # Delay stalled at the head of the bank queue
system.ruby.dir_cntrl15.memBuffer.memBankQ          523                       # Delay behind the head of the bank queue
system.ruby.dir_cntrl15.memBuffer.totalStalls        12300                       # Total number of stall cycles
system.ruby.dir_cntrl15.memBuffer.stallsPerReq     1.975904                       # Expected number of stall cycles per request
system.ruby.dir_cntrl15.memBuffer.memBankBusy        11370                       # memory stalls due to busy bank
[...]
system.ruby.l2_cntrl0.IM.Mem_Data::total        67904                      

system.ruby.l2_cntrl0.SS_MB.L1_GETS      |       21226     62.48%     62.48% |        2931      8.63%     71.10% |         557      1.64%     72.74% |        1586      4.67%     77.41% |         601      1.77%     79.18% |        3847     11.32%     90.50% |         621      1.83%     92.33% |         305      0.90%     93.23% |         517      1.52%     94.75% |         230      0.68%     95.43% |         330      0.97%     96.40% |         192      0.57%     96.97% |         180      0.53%     97.50% |         422      1.24%     98.74% |         141      0.42%     99.15% |         288      0.85%    100.00%
system.ruby.l2_cntrl0.SS_MB.L1_GETS::total        33974                      

system.ruby.l2_cntrl0.SS_MB.L1_GETX      |        4730     56.13%     56.13% |         961     11.40%     67.53% |         349      4.14%     71.67% |         491      5.83%     77.50% |         250      2.97%     80.47% |         486      5.77%     86.23% |         200      2.37%     88.61% |         138      1.64%     90.25% |         121      1.44%     91.68% |         135      1.60%     93.28% |          99      1.17%     94.46% |         100      1.19%     95.64% |          86      1.02%     96.67% |         102      1.21%     97.88% |          92      1.09%     98.97% |          87      1.03%    100.00%
system.ruby.l2_cntrl0.SS_MB.L1_GETX::total         8427                      

system.ruby.l2_cntrl0.SS_MB.L1_UPGRADE   |        5809     76.96%     76.96% |         566      7.50%     84.46% |         175      2.32%     86.78% |         167      2.21%     88.99% |          76      1.01%     90.00% |         457      6.05%     96.05% |          54      0.72%     96.77% |          36      0.48%     97.24% |          45      0.60%     97.84% |          27      0.36%     98.20% |          22      0.29%     98.49% |          19      0.25%     98.74% |          17      0.23%     98.97% |          33      0.44%     99.40% |          14      0.19%     99.59% |          31      0.41%    100.00%
system.ruby.l2_cntrl0.SS_MB.L1_UPGRADE::total         7548                      

system.ruby.l2_cntrl0.SS_MB.Exclusive_Unblock |       15666     14.55%     14.55% |        8869      8.24%     22.78% |        7022      6.52%     29.30% |        8149      7.57%     36.87% |        7379      6.85%     43.72% |        7526      6.99%     50.71% |        7431      6.90%     57.61% |        5173      4.80%     62.42% |        6291      5.84%     68.26% |        4305      4.00%     72.25% |        6566      6.10%     78.35% |        4332      4.02%     82.37% |        5258      4.88%     87.26% |        4849      4.50%     91.76% |        4535      4.21%     95.97% |        4339      4.03%    100.00%
system.ruby.l2_cntrl0.SS_MB.Exclusive_Unblock::total       107690                      

system.ruby.l2_cntrl0.MT_MB.L1_GETS      |       29828     80.45%     80.45% |        1466      3.95%     84.40% |         374      1.01%     85.41% |         443      1.19%     86.60% |         178      0.48%     87.08% |        4098     11.05%     98.14% |         107      0.29%     98.42% |          88      0.24%     98.66% |          82      0.22%     98.88% |          74      0.20%     99.08% |          54      0.15%     99.23% |          63      0.17%     99.40% |          47      0.13%     99.53% |          63      0.17%     99.70% |          58      0.16%     99.85% |          55      0.15%    100.00%
system.ruby.l2_cntrl0.MT_MB.L1_GETS::total        37078                      

system.ruby.l2_cntrl0.MT_MB.L1_GETX      |       31341     85.90%     85.90% |        1906      5.22%     91.13% |         577      1.58%     92.71% |         398      1.09%     93.80% |         160      0.44%     94.24% |        1729      4.74%     98.98% |          71      0.19%     99.17% |          57      0.16%     99.33% |          29      0.08%     99.41% |          70      0.19%     99.60% |          23      0.06%     99.66% |          21      0.06%     99.72% |          29      0.08%     99.80% |          18      0.05%     99.85% |          34      0.09%     99.94% |          21      0.06%    100.00%
system.ruby.l2_cntrl0.MT_MB.L1_GETX::total        36484                      

system.ruby.l2_cntrl0.MT_MB.Exclusive_Unblock |      295696      8.48%      8.48% |      136149      3.90%     12.38% |      254314      7.29%     19.67% |      161105      4.62%     24.29% |      250015      7.17%     31.46% |      148150      4.25%     35.71% |      287787      8.25%     43.96% |      127732      3.66%     47.62% |      299795      8.60%     56.22% |      175522      5.03%     61.25% |      266517      7.64%     68.89% |      182945      5.25%     74.14% |      317435      9.10%     83.24% |      173134      4.96%     88.20% |      281839      8.08%     96.29% |      129567      3.71%    100.00%
system.ruby.l2_cntrl0.MT_MB.Exclusive_Unblock::total      3487702                      

system.ruby.l2_cntrl0.MT_IIB.L1_GETS     |       30626     64.77%     64.77% |        3905      8.26%     73.03% |         747      1.58%     74.61% |        1776      3.76%     78.36% |         567      1.20%     79.56% |        7027     14.86%     94.43% |         555      1.17%     95.60% |         207      0.44%     96.04% |         490      1.04%     97.07% |         176      0.37%     97.45% |         228      0.48%     97.93% |         133      0.28%     98.21% |         117      0.25%     98.46% |         338      0.71%     99.17% |         106      0.22%     99.40% |         286      0.60%    100.00%
system.ruby.l2_cntrl0.MT_IIB.L1_GETS::total        47284                      

system.ruby.l2_cntrl0.MT_IIB.L1_GETX     |        2529     82.08%     82.08% |         124      4.02%     86.11% |           5      0.16%     86.27% |          62      2.01%     88.28% |          16      0.52%     88.80% |         249      8.08%     96.88% |          23      0.75%     97.63% |           5      0.16%     97.79% |          24      0.78%     98.57% |           2      0.06%     98.64% |           9      0.29%     98.93% |           2      0.06%     98.99% |           2      0.06%     99.06% |          18      0.58%     99.64% |           0      0.00%     99.64% |          11      0.36%    100.00%
system.ruby.l2_cntrl0.MT_IIB.L1_GETX::total         3081                      

system.ruby.l2_cntrl0.MT_IIB.L1_UPGRADE  |           1     50.00%     50.00% |           0      0.00%     50.00% |           1     50.00%    100.00% |           0      0.00%    100.00% |           0      0.00%    100.00% |           0      0.00%    100.00% |           0      0.00%    100.00% |           0      0.00%    100.00% |           0      0.00%    100.00% |           0      0.00%    100.00% |           0      0.00%    100.00% |           0      0.00%    100.00% |           0      0.00%    100.00% |           0      0.00%    100.00% |           0      0.00%    100.00% |           0      0.00%    100.00%
system.ruby.l2_cntrl0.MT_IIB.L1_UPGRADE::total            2                      

system.ruby.l2_cntrl0.MT_IIB.L1_PUTX     |           1     50.00%     50.00% |           0      0.00%     50.00% |           0      0.00%     50.00% |           0      0.00%     50.00% |           0      0.00%     50.00% |           0      0.00%     50.00% |           0      0.00%     50.00% |           0      0.00%     50.00% |           0      0.00%     50.00% |           0      0.00%     50.00% |           1     50.00%    100.00% |           0      0.00%    100.00% |           0      0.00%    100.00% |           0      0.00%    100.00% |           0      0.00%    100.00% |           0      0.00%    100.00%
system.ruby.l2_cntrl0.MT_IIB.L1_PUTX::total            2                      

system.ruby.l2_cntrl0.MT_IIB.WB_Data     |       16183     13.85%     13.85% |        9513      8.14%     22.00% |        7583      6.49%     28.49% |        8736      7.48%     35.97% |        7887      6.75%     42.72% |        8135      6.96%     49.68% |        7932      6.79%     56.47% |        5803      4.97%     61.44% |        6818      5.84%     67.28% |        4915      4.21%     71.48% |        7081      6.06%     77.54% |        4924      4.22%     81.76% |        5777      4.95%     86.70% |        5452      4.67%     91.37% |        5081      4.35%     95.72% |        4998      4.28%    100.00%
system.ruby.l2_cntrl0.MT_IIB.WB_Data::total       116818                      

system.ruby.l2_cntrl0.MT_IIB.WB_Data_clean |         100      9.90%      9.90% |          18      1.78%     11.68% |          92      9.11%     20.79% |          35      3.47%     24.26% |          93      9.21%     33.47% |          28      2.77%     36.24% |         108     10.69%     46.93% |          30      2.97%     49.90% |         104     10.30%     60.20% |          30      2.97%     63.17% |         107     10.59%     73.76% |          12      1.19%     74.95% |         109     10.79%     85.74% |          40      3.96%     89.70% |          77      7.62%     97.33% |          27      2.67%    100.00%
system.ruby.l2_cntrl0.MT_IIB.WB_Data_clean::total         1010                      

system.ruby.l2_cntrl0.MT_IIB.Unblock     |           7     14.00%     14.00% |           3      6.00%     20.00% |           2      4.00%     24.00% |           6     12.00%     36.00% |           6     12.00%     48.00% |           4      8.00%     56.00% |           3      6.00%     62.00% |           1      2.00%     64.00% |           4      8.00%     72.00% |           0      0.00%     72.00% |           5     10.00%     82.00% |           4      8.00%     90.00% |           1      2.00%     92.00% |           2      4.00%     96.00% |           1      2.00%     98.00% |           1      2.00%    100.00%
system.ruby.l2_cntrl0.MT_IIB.Unblock::total           50                      

system.ruby.l2_cntrl0.MT_IB.WB_Data      |           7     14.00%     14.00% |           3      6.00%     20.00% |           2      4.00%     24.00% |           6     12.00%     36.00% |           6     12.00%     48.00% |           4      8.00%     56.00% |           3      6.00%     62.00% |           1      2.00%     64.00% |           4      8.00%     72.00% |           0      0.00%     72.00% |           5     10.00%     82.00% |           4      8.00%     90.00% |           1      2.00%     92.00% |           2      4.00%     96.00% |           1      2.00%     98.00% |           1      2.00%    100.00%
system.ruby.l2_cntrl0.MT_IB.WB_Data::total           50                      

system.ruby.l2_cntrl0.MT_SB.L1_GETS      |           0      0.00%      0.00% |           1      7.14%      7.14% |           0      0.00%      7.14% |           0      0.00%      7.14% |           0      0.00%      7.14% |          11     78.57%     85.71% |           0      0.00%     85.71% |           0      0.00%     85.71% |           1      7.14%     92.86% |           0      0.00%     92.86% |           0      0.00%     92.86% |           0      0.00%     92.86% |           0      0.00%     92.86% |           0      0.00%     92.86% |           0      0.00%     92.86% |           1      7.14%    100.00%
system.ruby.l2_cntrl0.MT_SB.L1_GETS::total           14                      

system.ruby.l2_cntrl0.MT_SB.L1_GETX      |           0      0.00%      0.00% |           0      0.00%      0.00% |           0      0.00%      0.00% |           0      0.00%      0.00% |           0      0.00%      0.00% |           0      0.00%      0.00% |           1     33.33%     33.33% |           0      0.00%     33.33% |           0      0.00%     33.33% |           0      0.00%     33.33% |           1     33.33%     66.67% |           0      0.00%     66.67% |           0      0.00%     66.67% |           0      0.00%     66.67% |           0      0.00%     66.67% |           1     33.33%    100.00%
system.ruby.l2_cntrl0.MT_SB.L1_GETX::total            3                      

system.ruby.l2_cntrl0.MT_SB.Unblock      |       16283     13.82%     13.82% |        9531      8.09%     21.91% |        7675      6.51%     28.42% |        8771      7.44%     35.87% |        7980      6.77%     42.64% |        8163      6.93%     49.57% |        8040      6.82%     56.39% |        5833      4.95%     61.34% |        6922      5.87%     67.21% |        4945      4.20%     71.41% |        7188      6.10%     77.51% |        4936      4.19%     81.70% |        5886      5.00%     86.70% |        5492      4.66%     91.36% |        5158      4.38%     95.74% |        5025      4.26%    100.00%
system.ruby.l2_cntrl0.MT_SB.Unblock::total       117828                      

system.ruby.dir_cntrl0.Fetch             |        5836      6.74%      6.74% |        5329      6.15%     12.89% |        5689      6.57%     19.45% |        5230      6.04%     25.49% |        5532      6.39%     31.88% |        5230      6.04%     37.91% |        5636      6.51%     44.42% |        5294      6.11%     50.53% |        5781      6.67%     57.20% |        5156      5.95%     63.15% |        5713      6.59%     69.75% |        5153      5.95%     75.69% |        5601      6.46%     82.16% |        5127      5.92%     88.08% |        5294      6.11%     94.19% |        5035      5.81%    100.00%
system.ruby.dir_cntrl0.Fetch::total             86636                      

system.ruby.dir_cntrl0.Data              |        1584      7.11%      7.11% |        1428      6.41%     13.52% |        1518      6.81%     20.34% |        1345      6.04%     26.37% |        1421      6.38%     32.75% |        1350      6.06%     38.81% |        1447      6.50%     45.31% |        1435      6.44%     51.75% |        1543      6.93%     58.68% |        1286      5.77%     64.45% |        1507      6.77%     71.22% |        1305      5.86%     77.07% |        1395      6.26%     83.34% |        1273      5.71%     89.05% |        1249      5.61%     94.66% |        1190      5.34%    100.00%
system.ruby.dir_cntrl0.Data::total              22276                      

system.ruby.dir_cntrl0.Memory_Data       |        5836      6.74%      6.74% |        5329      6.15%     12.89% |        5689      6.57%     19.45% |        5230      6.04%     25.49% |        5532      6.39%     31.88% |        5230      6.04%     37.91% |        5636      6.51%     44.42% |        5294      6.11%     50.53% |        5781      6.67%     57.20% |        5156      5.95%     63.15% |        5713      6.59%     69.75% |        5153      5.95%     75.69% |        5601      6.46%     82.16% |        5127      5.92%     88.08% |        5294      6.11%     94.19% |        5035      5.81%    100.00%
system.ruby.dir_cntrl0.Memory_Data::total        86636                      

system.ruby.dir_cntrl0.Memory_Ack        |        1584      7.11%      7.11% |        1428      6.41%     13.52% |        1518      6.81%     20.34% |        1345      6.04%     26.37% |        1421      6.38%     32.75% |        1350      6.06%     38.81% |        1447      6.50%     45.31% |        1435      6.44%     51.75% |        1543      6.93%     58.68% |        1286      5.77%     64.45% |        1507      6.77%     71.22% |        1305      5.86%     77.07% |        1395      6.26%     83.34% |        1273      5.71%     89.05% |        1249      5.61%     94.66% |        1190      5.34%    100.00%
system.ruby.dir_cntrl0.Memory_Ack::total        22276                      

system.ruby.dir_cntrl0.CleanReplacement  |         521      9.89%      9.89% |         186      3.53%     13.42% |         455      8.64%     22.06% |         181      3.44%     25.50% |         410      7.78%     33.28% |         179      3.40%     36.68% |         487      9.25%     45.93% |         172      3.27%     49.19% |         549     10.42%     59.62% |         183      3.47%     63.09% |         529     10.04%     73.13% |         177      3.36%     76.50% |         531     10.08%     86.58% |         181      3.44%     90.01% |         377      7.16%     97.17% |         149      2.83%    100.00%
system.ruby.dir_cntrl0.CleanReplacement::total         5267                      

system.ruby.dir_cntrl0.I.Fetch           |        5836      6.74%      6.74% |        5329      6.15%     12.89% |        5689      6.57%     19.45% |        5230      6.04%     25.49% |        5532      6.39%     31.88% |        5230      6.04%     37.91% |        5636      6.51%     44.42% |        5294      6.11%     50.53% |        5781      6.67%     57.20% |        5156      5.95%     63.15% |        5713      6.59%     69.75% |        5153      5.95%     75.69% |        5601      6.46%     82.16% |        5127      5.92%     88.08% |        5294      6.11%     94.19% |        5035      5.81%    100.00%
system.ruby.dir_cntrl0.I.Fetch::total           86636                      

system.ruby.dir_cntrl0.M.Data            |        1584      7.11%      7.11% |        1428      6.41%     13.52% |        1518      6.81%     20.34% |        1345      6.04%     26.37% |        1421      6.38%     32.75% |        1350      6.06%     38.81% |        1447      6.50%     45.31% |        1435      6.44%     51.75% |        1543      6.93%     58.68% |        1286      5.77%     64.45% |        1507      6.77%     71.22% |        1305      5.86%     77.07% |        1395      6.26%     83.34% |        1273      5.71%     89.05% |        1249      5.61%     94.66% |        1190      5.34%    100.00%
system.ruby.dir_cntrl0.M.Data::total            22276                      

system.ruby.dir_cntrl0.M.CleanReplacement |         521      9.89%      9.89% |         186      3.53%     13.42% |         455      8.64%     22.06% |         181      3.44%     25.50% |         410      7.78%     33.28% |         179      3.40%     36.68% |         487      9.25%     45.93% |         172      3.27%     49.19% |         549     10.42%     59.62% |         183      3.47%     63.09% |         529     10.04%     73.13% |         177      3.36%     76.50% |         531     10.08%     86.58% |         181      3.44%     90.01% |         377      7.16%     97.17% |         149      2.83%    100.00%
system.ruby.dir_cntrl0.M.CleanReplacement::total         5267                      

system.ruby.dir_cntrl0.IM.Memory_Data    |        5836      6.74%      6.74% |        5329      6.15%     12.89% |        5689      6.57%     19.45% |        5230      6.04%     25.49% |        5532      6.39%     31.88% |        5230      6.04%     37.91% |        5636      6.51%     44.42% |        5294      6.11%     50.53% |        5781      6.67%     57.20% |        5156      5.95%     63.15% |        5713      6.59%     69.75% |        5153      5.95%     75.69% |        5601      6.46%     82.16% |        5127      5.92%     88.08% |        5294      6.11%     94.19% |        5035      5.81%    100.00%
system.ruby.dir_cntrl0.IM.Memory_Data::total        86636                      

system.ruby.dir_cntrl0.MI.Memory_Ack     |        1584      7.11%      7.11% |        1428      6.41%     13.52% |        1518      6.81%     20.34% |        1345      6.04%     26.37% |        1421      6.38%     32.75% |        1350      6.06%     38.81% |        1447      6.50%     45.31% |        1435      6.44%     51.75% |        1543      6.93%     58.68% |        1286      5.77%     64.45% |        1507      6.77%     71.22% |        1305      5.86%     77.07% |        1395      6.26%     83.34% |        1273      5.71%     89.05% |        1249      5.61%     94.66% |        1190      5.34%    100.00%
system.ruby.dir_cntrl0.MI.Memory_Ack::total        22276                      


---------- End Simulation Statistics   ----------
