
---------- Begin Simulation Statistics ----------
sim_seconds                                  0.038378                       # Number of seconds simulated
sim_ticks                                 38378349000                       # Number of ticks simulated
final_tick                                38378349000                       # Number of ticks from beginning of simulation (restored from checkpoints and never reset)
sim_freq                                 1000000000000                       # Frequency of simulated ticks
host_inst_rate                                 129805                       # Simulator instruction rate (inst/s)
host_op_rate                                   199390                       # Simulator op (including micro ops) rate (op/s)
host_tick_rate                               54691591                       # Simulator tick rate (ticks/s)
host_mem_usage                                 414736                       # Number of bytes of host memory used
host_seconds                                   701.72                       # Real time elapsed on the host
sim_insts                                    91087198                       # Number of instructions simulated
sim_ops                                     139916765                       # Number of ops (including micro ops) simulated
system.ruby.l2_cntrl5.L2cache.demand_hits        35664                       # Number of cache demand hits
system.ruby.l2_cntrl5.L2cache.demand_misses        24803                       # Number of cache demand misses
system.ruby.l2_cntrl5.L2cache.demand_accesses        60467                       # Number of cache demand accesses
system.ruby.l2_cntrl4.L2cache.demand_hits        36166                       # Number of cache demand hits
system.ruby.l2_cntrl4.L2cache.demand_misses        24727                       # Number of cache demand misses
system.ruby.l2_cntrl4.L2cache.demand_accesses        60893                       # Number of cache demand accesses
system.ruby.l2_cntrl11.L2cache.demand_hits        37097                       # Number of cache demand hits
system.ruby.l2_cntrl11.L2cache.demand_misses        24904                       # Number of cache demand misses
system.ruby.l2_cntrl11.L2cache.demand_accesses        62001                       # Number of cache demand accesses
system.ruby.l2_cntrl10.L2cache.demand_hits        36903                       # Number of cache demand hits
system.ruby.l2_cntrl10.L2cache.demand_misses        24855                       # Number of cache demand misses
system.ruby.l2_cntrl10.L2cache.demand_accesses        61758                       # Number of cache demand accesses
system.ruby.l2_cntrl13.L2cache.demand_hits        37607                       # Number of cache demand hits
system.ruby.l2_cntrl13.L2cache.demand_misses        25000                       # Number of cache demand misses
system.ruby.l2_cntrl13.L2cache.demand_accesses        62607                       # Number of cache demand accesses
system.ruby.l2_cntrl12.L2cache.demand_hits        37391                       # Number of cache demand hits
system.ruby.l2_cntrl12.L2cache.demand_misses        25004                       # Number of cache demand misses
system.ruby.l2_cntrl12.L2cache.demand_accesses        62395                       # Number of cache demand accesses
system.ruby.l2_cntrl15.L2cache.demand_hits        37765                       # Number of cache demand hits
system.ruby.l2_cntrl15.L2cache.demand_misses        25063                       # Number of cache demand misses
system.ruby.l2_cntrl15.L2cache.demand_accesses        62828                       # Number of cache demand accesses
system.ruby.l2_cntrl14.L2cache.demand_hits        37871                       # Number of cache demand hits
system.ruby.l2_cntrl14.L2cache.demand_misses        25020                       # Number of cache demand misses
system.ruby.l2_cntrl14.L2cache.demand_accesses        62891                       # Number of cache demand accesses
system.ruby.l1_cntrl4.L1Dcache.demand_hits       709389                       # Number of cache demand hits
system.ruby.l1_cntrl4.L1Dcache.demand_misses        64478                       # Number of cache demand misses
system.ruby.l1_cntrl4.L1Dcache.demand_accesses       773867                       # Number of cache demand accesses
system.ruby.l1_cntrl4.L1Icache.demand_hits      7974360                       # Number of cache demand hits
system.ruby.l1_cntrl4.L1Icache.demand_misses          230                       # Number of cache demand misses
system.ruby.l1_cntrl4.L1Icache.demand_accesses      7974590                       # Number of cache demand accesses
system.ruby.l1_cntrl4.prefetcher.miss_observed            0                       # number of misses observed
system.ruby.l1_cntrl4.prefetcher.allocated_streams            0                       # number of streams allocated for prefetching
system.ruby.l1_cntrl4.prefetcher.prefetches_requested            0                       # number of prefetch requests made
system.ruby.l1_cntrl4.prefetcher.prefetches_accepted            0                       # number of prefetch requests accepted
system.ruby.l1_cntrl4.prefetcher.dropped_prefetches            0                       # number of prefetch requests dropped
system.ruby.l1_cntrl4.prefetcher.hits               0                       # number of prefetched blocks accessed
system.ruby.l1_cntrl4.prefetcher.partial_hits            0                       # number of misses observed for a block being prefetched
system.ruby.l1_cntrl4.prefetcher.pages_crossed            0                       # number of prefetches across pages
system.ruby.l1_cntrl4.prefetcher.misses_on_prefetched_blocks            0                       # number of misses for blocks that were prefetched, yet missed
system.ruby.l1_cntrl5.L1Dcache.demand_hits       727345                       # Number of cache demand hits
system.ruby.l1_cntrl5.L1Dcache.demand_misses        60727                       # Number of cache demand misses
system.ruby.l1_cntrl5.L1Dcache.demand_accesses       788072                       # Number of cache demand accesses
system.ruby.l1_cntrl5.L1Icache.demand_hits      8010567                       # Number of cache demand hits
system.ruby.l1_cntrl5.L1Icache.demand_misses          203                       # Number of cache demand misses
system.ruby.l1_cntrl5.L1Icache.demand_accesses      8010770                       # Number of cache demand accesses
system.ruby.l1_cntrl5.prefetcher.miss_observed            0                       # number of misses observed
system.ruby.l1_cntrl5.prefetcher.allocated_streams            0                       # number of streams allocated for prefetching
system.ruby.l1_cntrl5.prefetcher.prefetches_requested            0                       # number of prefetch requests made
system.ruby.l1_cntrl5.prefetcher.prefetches_accepted            0                       # number of prefetch requests accepted
system.ruby.l1_cntrl5.prefetcher.dropped_prefetches            0                       # number of prefetch requests dropped
system.ruby.l1_cntrl5.prefetcher.hits               0                       # number of prefetched blocks accessed
system.ruby.l1_cntrl5.prefetcher.partial_hits            0                       # number of misses observed for a block being prefetched
system.ruby.l1_cntrl5.prefetcher.pages_crossed            0                       # number of prefetches across pages
system.ruby.l1_cntrl5.prefetcher.misses_on_prefetched_blocks            0                       # number of misses for blocks that were prefetched, yet missed
system.ruby.l1_cntrl6.L1Dcache.demand_hits       727734                       # Number of cache demand hits
system.ruby.l1_cntrl6.L1Dcache.demand_misses        62320                       # Number of cache demand misses
system.ruby.l1_cntrl6.L1Dcache.demand_accesses       790054                       # Number of cache demand accesses
system.ruby.l1_cntrl6.L1Icache.demand_hits      8013477                       # Number of cache demand hits
system.ruby.l1_cntrl6.L1Icache.demand_misses          236                       # Number of cache demand misses
system.ruby.l1_cntrl6.L1Icache.demand_accesses      8013713                       # Number of cache demand accesses
system.ruby.l1_cntrl6.prefetcher.miss_observed            0                       # number of misses observed
system.ruby.l1_cntrl6.prefetcher.allocated_streams            0                       # number of streams allocated for prefetching
system.ruby.l1_cntrl6.prefetcher.prefetches_requested            0                       # number of prefetch requests made
system.ruby.l1_cntrl6.prefetcher.prefetches_accepted            0                       # number of prefetch requests accepted
system.ruby.l1_cntrl6.prefetcher.dropped_prefetches            0                       # number of prefetch requests dropped
system.ruby.l1_cntrl6.prefetcher.hits               0                       # number of prefetched blocks accessed
system.ruby.l1_cntrl6.prefetcher.partial_hits            0                       # number of misses observed for a block being prefetched
system.ruby.l1_cntrl6.prefetcher.pages_crossed            0                       # number of prefetches across pages
system.ruby.l1_cntrl6.prefetcher.misses_on_prefetched_blocks            0                       # number of misses for blocks that were prefetched, yet missed
system.ruby.l1_cntrl7.L1Dcache.demand_hits       710121                       # Number of cache demand hits
system.ruby.l1_cntrl7.L1Dcache.demand_misses        60008                       # Number of cache demand misses
system.ruby.l1_cntrl7.L1Dcache.demand_accesses       770129                       # Number of cache demand accesses
system.ruby.l1_cntrl7.L1Icache.demand_hits      7978870                       # Number of cache demand hits
system.ruby.l1_cntrl7.L1Icache.demand_misses          213                       # Number of cache demand misses
system.ruby.l1_cntrl7.L1Icache.demand_accesses      7979083                       # Number of cache demand accesses
system.ruby.l1_cntrl7.prefetcher.miss_observed            0                       # number of misses observed
system.ruby.l1_cntrl7.prefetcher.allocated_streams            0                       # number of streams allocated for prefetching
system.ruby.l1_cntrl7.prefetcher.prefetches_requested            0                       # number of prefetch requests made
system.ruby.l1_cntrl7.prefetcher.prefetches_accepted            0                       # number of prefetch requests accepted
system.ruby.l1_cntrl7.prefetcher.dropped_prefetches            0                       # number of prefetch requests dropped
system.ruby.l1_cntrl7.prefetcher.hits               0                       # number of prefetched blocks accessed
system.ruby.l1_cntrl7.prefetcher.partial_hits            0                       # number of misses observed for a block being prefetched
system.ruby.l1_cntrl7.prefetcher.pages_crossed            0                       # number of prefetches across pages
system.ruby.l1_cntrl7.prefetcher.misses_on_prefetched_blocks            0                       # number of misses for blocks that were prefetched, yet missed
system.ruby.l1_cntrl0.L1Dcache.demand_hits       719903                       # Number of cache demand hits
system.ruby.l1_cntrl0.L1Dcache.demand_misses        62244                       # Number of cache demand misses
system.ruby.l1_cntrl0.L1Dcache.demand_accesses       782147                       # Number of cache demand accesses
system.ruby.l1_cntrl0.L1Icache.demand_hits      8030854                       # Number of cache demand hits
system.ruby.l1_cntrl0.L1Icache.demand_misses          849                       # Number of cache demand misses
system.ruby.l1_cntrl0.L1Icache.demand_accesses      8031703                       # Number of cache demand accesses
system.ruby.l1_cntrl0.prefetcher.miss_observed            0                       # number of misses observed
system.ruby.l1_cntrl0.prefetcher.allocated_streams            0                       # number of streams allocated for prefetching
system.ruby.l1_cntrl0.prefetcher.prefetches_requested            0                       # number of prefetch requests made
system.ruby.l1_cntrl0.prefetcher.prefetches_accepted            0                       # number of prefetch requests accepted
system.ruby.l1_cntrl0.prefetcher.dropped_prefetches            0                       # number of prefetch requests dropped
system.ruby.l1_cntrl0.prefetcher.hits               0                       # number of prefetched blocks accessed
system.ruby.l1_cntrl0.prefetcher.partial_hits            0                       # number of misses observed for a block being prefetched
system.ruby.l1_cntrl0.prefetcher.pages_crossed            0                       # number of prefetches across pages
system.ruby.l1_cntrl0.prefetcher.misses_on_prefetched_blocks            0                       # number of misses for blocks that were prefetched, yet missed
system.ruby.l1_cntrl1.L1Dcache.demand_hits       737258                       # Number of cache demand hits
system.ruby.l1_cntrl1.L1Dcache.demand_misses        60758                       # Number of cache demand misses
system.ruby.l1_cntrl1.L1Dcache.demand_accesses       798016                       # Number of cache demand accesses
system.ruby.l1_cntrl1.L1Icache.demand_hits      8025449                       # Number of cache demand hits
system.ruby.l1_cntrl1.L1Icache.demand_misses          229                       # Number of cache demand misses
system.ruby.l1_cntrl1.L1Icache.demand_accesses      8025678                       # Number of cache demand accesses
system.ruby.l1_cntrl1.prefetcher.miss_observed            0                       # number of misses observed
system.ruby.l1_cntrl1.prefetcher.allocated_streams            0                       # number of streams allocated for prefetching
system.ruby.l1_cntrl1.prefetcher.prefetches_requested            0                       # number of prefetch requests made
system.ruby.l1_cntrl1.prefetcher.prefetches_accepted            0                       # number of prefetch requests accepted
system.ruby.l1_cntrl1.prefetcher.dropped_prefetches            0                       # number of prefetch requests dropped
system.ruby.l1_cntrl1.prefetcher.hits               0                       # number of prefetched blocks accessed
system.ruby.l1_cntrl1.prefetcher.partial_hits            0                       # number of misses observed for a block being prefetched
system.ruby.l1_cntrl1.prefetcher.pages_crossed            0                       # number of prefetches across pages
system.ruby.l1_cntrl1.prefetcher.misses_on_prefetched_blocks            0                       # number of misses for blocks that were prefetched, yet missed
system.ruby.l1_cntrl2.L1Dcache.demand_hits       725664                       # Number of cache demand hits
system.ruby.l1_cntrl2.L1Dcache.demand_misses        61892                       # Number of cache demand misses
system.ruby.l1_cntrl2.L1Dcache.demand_accesses       787556                       # Number of cache demand accesses
system.ruby.l1_cntrl2.L1Icache.demand_hits      8004135                       # Number of cache demand hits
system.ruby.l1_cntrl2.L1Icache.demand_misses          233                       # Number of cache demand misses
system.ruby.l1_cntrl2.L1Icache.demand_accesses      8004368                       # Number of cache demand accesses
system.ruby.l1_cntrl2.prefetcher.miss_observed            0                       # number of misses observed
system.ruby.l1_cntrl2.prefetcher.allocated_streams            0                       # number of streams allocated for prefetching
system.ruby.l1_cntrl2.prefetcher.prefetches_requested            0                       # number of prefetch requests made
system.ruby.l1_cntrl2.prefetcher.prefetches_accepted            0                       # number of prefetch requests accepted
system.ruby.l1_cntrl2.prefetcher.dropped_prefetches            0                       # number of prefetch requests dropped
system.ruby.l1_cntrl2.prefetcher.hits               0                       # number of prefetched blocks accessed
system.ruby.l1_cntrl2.prefetcher.partial_hits            0                       # number of misses observed for a block being prefetched
system.ruby.l1_cntrl2.prefetcher.pages_crossed            0                       # number of prefetches across pages
system.ruby.l1_cntrl2.prefetcher.misses_on_prefetched_blocks            0                       # number of misses for blocks that were prefetched, yet missed
system.ruby.l1_cntrl3.L1Dcache.demand_hits       715527                       # Number of cache demand hits
system.ruby.l1_cntrl3.L1Dcache.demand_misses        60129                       # Number of cache demand misses
system.ruby.l1_cntrl3.L1Dcache.demand_accesses       775656                       # Number of cache demand accesses
system.ruby.l1_cntrl3.L1Icache.demand_hits      7986395                       # Number of cache demand hits
system.ruby.l1_cntrl3.L1Icache.demand_misses          218                       # Number of cache demand misses
system.ruby.l1_cntrl3.L1Icache.demand_accesses      7986613                       # Number of cache demand accesses
system.ruby.l1_cntrl3.prefetcher.miss_observed            0                       # number of misses observed
system.ruby.l1_cntrl3.prefetcher.allocated_streams            0                       # number of streams allocated for prefetching
system.ruby.l1_cntrl3.prefetcher.prefetches_requested            0                       # number of prefetch requests made
system.ruby.l1_cntrl3.prefetcher.prefetches_accepted            0                       # number of prefetch requests accepted
system.ruby.l1_cntrl3.prefetcher.dropped_prefetches            0                       # number of prefetch requests dropped
system.ruby.l1_cntrl3.prefetcher.hits               0                       # number of prefetched blocks accessed
system.ruby.l1_cntrl3.prefetcher.partial_hits            0                       # number of misses observed for a block being prefetched
system.ruby.l1_cntrl3.prefetcher.pages_crossed            0                       # number of prefetches across pages
system.ruby.l1_cntrl3.prefetcher.misses_on_prefetched_blocks            0                       # number of misses for blocks that were prefetched, yet missed
system.ruby.l2_cntrl1.L2cache.demand_hits        40694                       # Number of cache demand hits
system.ruby.l2_cntrl1.L2cache.demand_misses        25702                       # Number of cache demand misses
system.ruby.l2_cntrl1.L2cache.demand_accesses        66396                       # Number of cache demand accesses
system.ruby.l2_cntrl0.L2cache.demand_hits        38002                       # Number of cache demand hits
system.ruby.l2_cntrl0.L2cache.demand_misses        25210                       # Number of cache demand misses
system.ruby.l2_cntrl0.L2cache.demand_accesses        63212                       # Number of cache demand accesses
system.ruby.l2_cntrl3.L2cache.demand_hits        36367                       # Number of cache demand hits
system.ruby.l2_cntrl3.L2cache.demand_misses        24682                       # Number of cache demand misses
system.ruby.l2_cntrl3.L2cache.demand_accesses        61049                       # Number of cache demand accesses
system.ruby.l2_cntrl2.L2cache.demand_hits        36690                       # Number of cache demand hits
system.ruby.l2_cntrl2.L2cache.demand_misses        24929                       # Number of cache demand misses
system.ruby.l2_cntrl2.L2cache.demand_accesses        61619                       # Number of cache demand accesses
system.ruby.l1_cntrl8.L1Dcache.demand_hits       692569                       # Number of cache demand hits
system.ruby.l1_cntrl8.L1Dcache.demand_misses        65844                       # Number of cache demand misses
system.ruby.l1_cntrl8.L1Dcache.demand_accesses       758413                       # Number of cache demand accesses
system.ruby.l1_cntrl8.L1Icache.demand_hits      7941778                       # Number of cache demand hits
system.ruby.l1_cntrl8.L1Icache.demand_misses          221                       # Number of cache demand misses
system.ruby.l1_cntrl8.L1Icache.demand_accesses      7941999                       # Number of cache demand accesses
system.ruby.l1_cntrl8.prefetcher.miss_observed            0                       # number of misses observed
system.ruby.l1_cntrl8.prefetcher.allocated_streams            0                       # number of streams allocated for prefetching
system.ruby.l1_cntrl8.prefetcher.prefetches_requested            0                       # number of prefetch requests made
system.ruby.l1_cntrl8.prefetcher.prefetches_accepted            0                       # number of prefetch requests accepted
system.ruby.l1_cntrl8.prefetcher.dropped_prefetches            0                       # number of prefetch requests dropped
system.ruby.l1_cntrl8.prefetcher.hits               0                       # number of prefetched blocks accessed
system.ruby.l1_cntrl8.prefetcher.partial_hits            0                       # number of misses observed for a block being prefetched
system.ruby.l1_cntrl8.prefetcher.pages_crossed            0                       # number of prefetches across pages
system.ruby.l1_cntrl8.prefetcher.misses_on_prefetched_blocks            0                       # number of misses for blocks that were prefetched, yet missed
system.ruby.l1_cntrl9.L1Dcache.demand_hits       723011                       # Number of cache demand hits
system.ruby.l1_cntrl9.L1Dcache.demand_misses        60244                       # Number of cache demand misses
system.ruby.l1_cntrl9.L1Dcache.demand_accesses       783255                       # Number of cache demand accesses
system.ruby.l1_cntrl9.L1Icache.demand_hits      8001022                       # Number of cache demand hits
system.ruby.l1_cntrl9.L1Icache.demand_misses          212                       # Number of cache demand misses
system.ruby.l1_cntrl9.L1Icache.demand_accesses      8001234                       # Number of cache demand accesses
system.ruby.l1_cntrl9.prefetcher.miss_observed            0                       # number of misses observed
system.ruby.l1_cntrl9.prefetcher.allocated_streams            0                       # number of streams allocated for prefetching
system.ruby.l1_cntrl9.prefetcher.prefetches_requested            0                       # number of prefetch requests made
system.ruby.l1_cntrl9.prefetcher.prefetches_accepted            0                       # number of prefetch requests accepted
system.ruby.l1_cntrl9.prefetcher.dropped_prefetches            0                       # number of prefetch requests dropped
system.ruby.l1_cntrl9.prefetcher.hits               0                       # number of prefetched blocks accessed
system.ruby.l1_cntrl9.prefetcher.partial_hits            0                       # number of misses observed for a block being prefetched
system.ruby.l1_cntrl9.prefetcher.pages_crossed            0                       # number of prefetches across pages
system.ruby.l1_cntrl9.prefetcher.misses_on_prefetched_blocks            0                       # number of misses for blocks that were prefetched, yet missed
system.ruby.l2_cntrl7.L2cache.demand_hits        36037                       # Number of cache demand hits
system.ruby.l2_cntrl7.L2cache.demand_misses        24655                       # Number of cache demand misses
system.ruby.l2_cntrl7.L2cache.demand_accesses        60692                       # Number of cache demand accesses
system.ruby.l2_cntrl6.L2cache.demand_hits        35924                       # Number of cache demand hits
system.ruby.l2_cntrl6.L2cache.demand_misses        24667                       # Number of cache demand misses
system.ruby.l2_cntrl6.L2cache.demand_accesses        60591                       # Number of cache demand accesses
system.ruby.l1_cntrl14.L1Dcache.demand_hits       706352                       # Number of cache demand hits
system.ruby.l1_cntrl14.L1Dcache.demand_misses        60496                       # Number of cache demand misses
system.ruby.l1_cntrl14.L1Dcache.demand_accesses       766848                       # Number of cache demand accesses
system.ruby.l1_cntrl14.L1Icache.demand_hits      7976575                       # Number of cache demand hits
system.ruby.l1_cntrl14.L1Icache.demand_misses          213                       # Number of cache demand misses
system.ruby.l1_cntrl14.L1Icache.demand_accesses      7976788                       # Number of cache demand accesses
system.ruby.l1_cntrl14.prefetcher.miss_observed            0                       # number of misses observed
system.ruby.l1_cntrl14.prefetcher.allocated_streams            0                       # number of streams allocated for prefetching
system.ruby.l1_cntrl14.prefetcher.prefetches_requested            0                       # number of prefetch requests made
system.ruby.l1_cntrl14.prefetcher.prefetches_accepted            0                       # number of prefetch requests accepted
system.ruby.l1_cntrl14.prefetcher.dropped_prefetches            0                       # number of prefetch requests dropped
system.ruby.l1_cntrl14.prefetcher.hits              0                       # number of prefetched blocks accessed
system.ruby.l1_cntrl14.prefetcher.partial_hits            0                       # number of misses observed for a block being prefetched
system.ruby.l1_cntrl14.prefetcher.pages_crossed            0                       # number of prefetches across pages
system.ruby.l1_cntrl14.prefetcher.misses_on_prefetched_blocks            0                       # number of misses for blocks that were prefetched, yet missed
system.ruby.l1_cntrl15.L1Dcache.demand_hits       701053                       # Number of cache demand hits
system.ruby.l1_cntrl15.L1Dcache.demand_misses        62750                       # Number of cache demand misses
system.ruby.l1_cntrl15.L1Dcache.demand_accesses       763803                       # Number of cache demand accesses
system.ruby.l1_cntrl15.L1Icache.demand_hits      7983976                       # Number of cache demand hits
system.ruby.l1_cntrl15.L1Icache.demand_misses          222                       # Number of cache demand misses
system.ruby.l1_cntrl15.L1Icache.demand_accesses      7984198                       # Number of cache demand accesses
system.ruby.l1_cntrl15.prefetcher.miss_observed            0                       # number of misses observed
system.ruby.l1_cntrl15.prefetcher.allocated_streams            0                       # number of streams allocated for prefetching
system.ruby.l1_cntrl15.prefetcher.prefetches_requested            0                       # number of prefetch requests made
system.ruby.l1_cntrl15.prefetcher.prefetches_accepted            0                       # number of prefetch requests accepted
system.ruby.l1_cntrl15.prefetcher.dropped_prefetches            0                       # number of prefetch requests dropped
system.ruby.l1_cntrl15.prefetcher.hits              0                       # number of prefetched blocks accessed
system.ruby.l1_cntrl15.prefetcher.partial_hits            0                       # number of misses observed for a block being prefetched
system.ruby.l1_cntrl15.prefetcher.pages_crossed            0                       # number of prefetches across pages
system.ruby.l1_cntrl15.prefetcher.misses_on_prefetched_blocks            0                       # number of misses for blocks that were prefetched, yet missed
system.ruby.l1_cntrl12.L1Dcache.demand_hits       696620                       # Number of cache demand hits
system.ruby.l1_cntrl12.L1Dcache.demand_misses        63709                       # Number of cache demand misses
system.ruby.l1_cntrl12.L1Dcache.demand_accesses       760329                       # Number of cache demand accesses
system.ruby.l1_cntrl12.L1Icache.demand_hits      7951625                       # Number of cache demand hits
system.ruby.l1_cntrl12.L1Icache.demand_misses          231                       # Number of cache demand misses
system.ruby.l1_cntrl12.L1Icache.demand_accesses      7951856                       # Number of cache demand accesses
system.ruby.l1_cntrl12.prefetcher.miss_observed            0                       # number of misses observed
system.ruby.l1_cntrl12.prefetcher.allocated_streams            0                       # number of streams allocated for prefetching
system.ruby.l1_cntrl12.prefetcher.prefetches_requested            0                       # number of prefetch requests made
system.ruby.l1_cntrl12.prefetcher.prefetches_accepted            0                       # number of prefetch requests accepted
system.ruby.l1_cntrl12.prefetcher.dropped_prefetches            0                       # number of prefetch requests dropped
system.ruby.l1_cntrl12.prefetcher.hits              0                       # number of prefetched blocks accessed
system.ruby.l1_cntrl12.prefetcher.partial_hits            0                       # number of misses observed for a block being prefetched
system.ruby.l1_cntrl12.prefetcher.pages_crossed            0                       # number of prefetches across pages
system.ruby.l1_cntrl12.prefetcher.misses_on_prefetched_blocks            0                       # number of misses for blocks that were prefetched, yet missed
system.ruby.l1_cntrl13.L1Dcache.demand_hits       727931                       # Number of cache demand hits
system.ruby.l1_cntrl13.L1Dcache.demand_misses        60170                       # Number of cache demand misses
system.ruby.l1_cntrl13.L1Dcache.demand_accesses       788101                       # Number of cache demand accesses
system.ruby.l1_cntrl13.L1Icache.demand_hits      8014844                       # Number of cache demand hits
system.ruby.l1_cntrl13.L1Icache.demand_misses          204                       # Number of cache demand misses
system.ruby.l1_cntrl13.L1Icache.demand_accesses      8015048                       # Number of cache demand accesses
system.ruby.l1_cntrl13.prefetcher.miss_observed            0                       # number of misses observed
system.ruby.l1_cntrl13.prefetcher.allocated_streams            0                       # number of streams allocated for prefetching
system.ruby.l1_cntrl13.prefetcher.prefetches_requested            0                       # number of prefetch requests made
system.ruby.l1_cntrl13.prefetcher.prefetches_accepted            0                       # number of prefetch requests accepted
system.ruby.l1_cntrl13.prefetcher.dropped_prefetches            0                       # number of prefetch requests dropped
system.ruby.l1_cntrl13.prefetcher.hits              0                       # number of prefetched blocks accessed
system.ruby.l1_cntrl13.prefetcher.partial_hits            0                       # number of misses observed for a block being prefetched
system.ruby.l1_cntrl13.prefetcher.pages_crossed            0                       # number of prefetches across pages
system.ruby.l1_cntrl13.prefetcher.misses_on_prefetched_blocks            0                       # number of misses for blocks that were prefetched, yet missed
system.ruby.l1_cntrl10.L1Dcache.demand_hits       711750                       # Number of cache demand hits
system.ruby.l1_cntrl10.L1Dcache.demand_misses        61704                       # Number of cache demand misses
system.ruby.l1_cntrl10.L1Dcache.demand_accesses       773454                       # Number of cache demand accesses
system.ruby.l1_cntrl10.L1Icache.demand_hits      7980321                       # Number of cache demand hits
system.ruby.l1_cntrl10.L1Icache.demand_misses          236                       # Number of cache demand misses
system.ruby.l1_cntrl10.L1Icache.demand_accesses      7980557                       # Number of cache demand accesses
system.ruby.l1_cntrl10.prefetcher.miss_observed            0                       # number of misses observed
system.ruby.l1_cntrl10.prefetcher.allocated_streams            0                       # number of streams allocated for prefetching
system.ruby.l1_cntrl10.prefetcher.prefetches_requested            0                       # number of prefetch requests made
system.ruby.l1_cntrl10.prefetcher.prefetches_accepted            0                       # number of prefetch requests accepted
system.ruby.l1_cntrl10.prefetcher.dropped_prefetches            0                       # number of prefetch requests dropped
system.ruby.l1_cntrl10.prefetcher.hits              0                       # number of prefetched blocks accessed
system.ruby.l1_cntrl10.prefetcher.partial_hits            0                       # number of misses observed for a block being prefetched
system.ruby.l1_cntrl10.prefetcher.pages_crossed            0                       # number of prefetches across pages
system.ruby.l1_cntrl10.prefetcher.misses_on_prefetched_blocks            0                       # number of misses for blocks that were prefetched, yet missed
system.ruby.l1_cntrl11.L1Dcache.demand_hits       721819                       # Number of cache demand hits
system.ruby.l1_cntrl11.L1Dcache.demand_misses        60489                       # Number of cache demand misses
system.ruby.l1_cntrl11.L1Dcache.demand_accesses       782308                       # Number of cache demand accesses
system.ruby.l1_cntrl11.L1Icache.demand_hits      8003251                       # Number of cache demand hits
system.ruby.l1_cntrl11.L1Icache.demand_misses          209                       # Number of cache demand misses
system.ruby.l1_cntrl11.L1Icache.demand_accesses      8003460                       # Number of cache demand accesses
system.ruby.l1_cntrl11.prefetcher.miss_observed            0                       # number of misses observed
system.ruby.l1_cntrl11.prefetcher.allocated_streams            0                       # number of streams allocated for prefetching
system.ruby.l1_cntrl11.prefetcher.prefetches_requested            0                       # number of prefetch requests made
system.ruby.l1_cntrl11.prefetcher.prefetches_accepted            0                       # number of prefetch requests accepted
system.ruby.l1_cntrl11.prefetcher.dropped_prefetches            0                       # number of prefetch requests dropped
system.ruby.l1_cntrl11.prefetcher.hits              0                       # number of prefetched blocks accessed
system.ruby.l1_cntrl11.prefetcher.partial_hits            0                       # number of misses observed for a block being prefetched
system.ruby.l1_cntrl11.prefetcher.pages_crossed            0                       # number of prefetches across pages
system.ruby.l1_cntrl11.prefetcher.misses_on_prefetched_blocks            0                       # number of misses for blocks that were prefetched, yet missed
system.ruby.l2_cntrl9.L2cache.demand_hits        36666                       # Number of cache demand hits
system.ruby.l2_cntrl9.L2cache.demand_misses        25031                       # Number of cache demand misses
system.ruby.l2_cntrl9.L2cache.demand_accesses        61697                       # Number of cache demand accesses
system.ruby.l2_cntrl8.L2cache.demand_hits        36256                       # Number of cache demand hits
system.ruby.l2_cntrl8.L2cache.demand_misses        24769                       # Number of cache demand misses
system.ruby.l2_cntrl8.L2cache.demand_accesses        61025                       # Number of cache demand accesses
system.ruby.dir_cntrl0.memBuffer.memReq         36009                       # Total number of memory requests
system.ruby.dir_cntrl0.memBuffer.memRead        23221                       # Number of memory reads
system.ruby.dir_cntrl0.memBuffer.memWrite        12788                       # Number of memory writes
system.ruby.dir_cntrl0.memBuffer.memRefresh       129616                       # Number of memory refreshes
system.ruby.dir_cntrl0.memBuffer.memWaitCycles       125335                       # Delay stalled at the head of the bank queue
system.ruby.dir_cntrl0.memBuffer.memInputQ          166                       # Delay in the input queue
system.ruby.dir_cntrl0.memBuffer.memBankQ         5734                       # Delay behind the head of the bank queue
system.ruby.dir_cntrl0.memBuffer.totalStalls       131235                       # Total number of stall cycles
system.ruby.dir_cntrl0.memBuffer.stallsPerReq     3.644506                       # Expected number of stall cycles per request
system.ruby.dir_cntrl0.memBuffer.memBankBusy       123047                       # memory stalls due to busy bank
system.ruby.dir_cntrl0.memBuffer.memBusBusy         1362                       # memory stalls due to busy bus
system.ruby.dir_cntrl0.memBuffer.memReadWriteBusy          292                       # memory stalls due to read write turnaround
system.ruby.dir_cntrl0.memBuffer.memDataBusBusy          172                       # memory stalls due to read read turnaround
system.ruby.dir_cntrl0.memBuffer.memArbWait          462                       # memory stalls due to arbitration
system.ruby.dir_cntrl0.memBuffer.memBankCount |        4661     12.94%     12.94% |           0      0.00%     12.94% |           0      0.00%     12.94% |           0      0.00%     12.94% |        4441     12.33%     25.28% |           0      0.00%     25.28% |           0      0.00%     25.28% |           0      0.00%     25.28% |        4500     12.50%     37.77% |           0      0.00%     37.77% |           0      0.00%     37.77% |           0      0.00%     37.77% |        4388     12.19%     49.96% |           0      0.00%     49.96% |           0      0.00%     49.96% |           0      0.00%     49.96% |        4607     12.79%     62.75% |           0      0.00%     62.75% |           0      0.00%     62.75% |           0      0.00%     62.75% |        4476     12.43%     75.18% |           0      0.00%     75.18% |           0      0.00%     75.18% |           0      0.00%     75.18% |        4506     12.51%     87.70% |           0      0.00%     87.70% |           0      0.00%     87.70% |           0      0.00%     87.70% |        4430     12.30%    100.00% |           0      0.00%    100.00% |           0      0.00%    100.00% |           0      0.00%    100.00% # Number of accesses per bank
system.ruby.dir_cntrl0.memBuffer.memBankCount::total        36009                       # Number of accesses per bank

system.ruby.dir_cntrl1.memBuffer.memReq         36041                       # Total number of memory requests
system.ruby.dir_cntrl1.memBuffer.memRead        23260                       # Number of memory reads
system.ruby.dir_cntrl1.memBuffer.memWrite        12781                       # Number of memory writes
system.ruby.dir_cntrl1.memBuffer.memRefresh       129611                       # Number of memory refreshes
system.ruby.dir_cntrl1.memBuffer.memWaitCycles       125578                       # Delay stalled at the head of the bank queue
system.ruby.dir_cntrl1.memBuffer.memInputQ          187                       # Delay in the input queue
system.ruby.dir_cntrl1.memBuffer.memBankQ         4624                       # Delay behind the head of the bank queue
system.ruby.dir_cntrl1.memBuffer.totalStalls       130389                       # Total number of stall cycles
system.ruby.dir_cntrl1.memBuffer.stallsPerReq     3.617796                       # Expected number of stall cycles per request
system.ruby.dir_cntrl1.memBuffer.memBankBusy       123102                       # memory stalls due to busy bank
system.ruby.dir_cntrl1.memBuffer.memBusBusy         1443                       # memory stalls due to busy bus
system.ruby.dir_cntrl1.memBuffer.memReadWriteBusy          336                       # memory stalls due to read write turnaround
system.ruby.dir_cntrl1.memBuffer.memDataBusBusy          176                       # memory stalls due to read read turnaround
system.ruby.dir_cntrl1.memBuffer.memArbWait          521                       # memory stalls due to arbitration
system.ruby.dir_cntrl1.memBuffer.memBankCount |        4629     12.84%     12.84% |           0      0.00%     12.84% |           0      0.00%     12.84% |           0      0.00%     12.84% |        4439     12.32%     25.16% |           0      0.00%     25.16% |           0      0.00%     25.16% |           0      0.00%     25.16% |        4488     12.45%     37.61% |           0      0.00%     37.61% |           0      0.00%     37.61% |           0      0.00%     37.61% |        4446     12.34%     49.95% |           0      0.00%     49.95% |           0      0.00%     49.95% |           0      0.00%     49.95% |        4581     12.71%     62.66% |           0      0.00%     62.66% |           0      0.00%     62.66% |           0      0.00%     62.66% |        4455     12.36%     75.02% |           0      0.00%     75.02% |           0      0.00%     75.02% |           0      0.00%     75.02% |        4493     12.47%     87.49% |           0      0.00%     87.49% |           0      0.00%     87.49% |           0      0.00%     87.49% |        4510     12.51%    100.00% |           0      0.00%    100.00% |           0      0.00%    100.00% |           0      0.00%    100.00% # Number of accesses per bank
system.ruby.dir_cntrl1.memBuffer.memBankCount::total        36041                       # Number of accesses per bank

system.ruby.dir_cntrl2.memBuffer.memReq         35973                       # Total number of memory requests
system.ruby.dir_cntrl2.memBuffer.memRead        23213                       # Number of memory reads
system.ruby.dir_cntrl2.memBuffer.memWrite        12760                       # Number of memory writes
system.ruby.dir_cntrl2.memBuffer.memRefresh       129377                       # Number of memory refreshes
system.ruby.dir_cntrl2.memBuffer.memWaitCycles       125716                       # Delay stalled at the head of the bank queue
system.ruby.dir_cntrl2.memBuffer.memInputQ          816                       # Delay in the input queue
system.ruby.dir_cntrl2.memBuffer.memBankQ         9825                       # Delay behind the head of the bank queue
system.ruby.dir_cntrl2.memBuffer.totalStalls       136357                       # Total number of stall cycles
system.ruby.dir_cntrl2.memBuffer.stallsPerReq     3.790537                       # Expected number of stall cycles per request
system.ruby.dir_cntrl2.memBuffer.memBankBusy       123340                       # memory stalls due to busy bank
system.ruby.dir_cntrl2.memBuffer.memBusBusy         1437                       # memory stalls due to busy bus
system.ruby.dir_cntrl2.memBuffer.memReadWriteBusy          303                       # memory stalls due to read write turnaround
system.ruby.dir_cntrl2.memBuffer.memDataBusBusy          162                       # memory stalls due to read read turnaround
system.ruby.dir_cntrl2.memBuffer.memArbWait          474                       # memory stalls due to arbitration
system.ruby.dir_cntrl2.memBuffer.memBankCount |        4598     12.78%     12.78% |           0      0.00%     12.78% |           0      0.00%     12.78% |           0      0.00%     12.78% |        4455     12.38%     25.17% |           0      0.00%     25.17% |           0      0.00%     25.17% |           0      0.00%     25.17% |        4516     12.55%     37.72% |           0      0.00%     37.72% |           0      0.00%     37.72% |           0      0.00%     37.72% |        4384     12.19%     49.91% |           0      0.00%     49.91% |           0      0.00%     49.91% |           0      0.00%     49.91% |        4643     12.91%     62.81% |           0      0.00%     62.81% |           0      0.00%     62.81% |           0      0.00%     62.81% |        4409     12.26%     75.07% |           0      0.00%     75.07% |           0      0.00%     75.07% |           0      0.00%     75.07% |        4502     12.51%     87.59% |           0      0.00%     87.59% |           0      0.00%     87.59% |           0      0.00%     87.59% |        4466     12.41%    100.00% |           0      0.00%    100.00% |           0      0.00%    100.00% |           0      0.00%    100.00% # Number of accesses per bank
system.ruby.dir_cntrl2.memBuffer.memBankCount::total        35973                       # Number of accesses per bank

system.ruby.dir_cntrl3.memBuffer.memReq         35750                       # Total number of memory requests
system.ruby.dir_cntrl3.memBuffer.memRead        23090                       # Number of memory reads
system.ruby.dir_cntrl3.memBuffer.memWrite        12660                       # Number of memory writes
system.ruby.dir_cntrl3.memBuffer.memRefresh       129379                       # Number of memory refreshes
system.ruby.dir_cntrl3.memBuffer.memWaitCycles       124206                       # Delay stalled at the head of the bank queue
system.ruby.dir_cntrl3.memBuffer.memInputQ          165                       # Delay in the input queue
system.ruby.dir_cntrl3.memBuffer.memBankQ         5770                       # Delay behind the head of the bank queue
system.ruby.dir_cntrl3.memBuffer.totalStalls       130141                       # Total number of stall cycles
system.ruby.dir_cntrl3.memBuffer.stallsPerReq     3.640308                       # Expected number of stall cycles per request
system.ruby.dir_cntrl3.memBuffer.memBankBusy       121901                       # memory stalls due to busy bank
system.ruby.dir_cntrl3.memBuffer.memBusBusy         1340                       # memory stalls due to busy bus
system.ruby.dir_cntrl3.memBuffer.memReadWriteBusy          339                       # memory stalls due to read write turnaround
system.ruby.dir_cntrl3.memBuffer.memDataBusBusy          158                       # memory stalls due to read read turnaround
system.ruby.dir_cntrl3.memBuffer.memArbWait          468                       # memory stalls due to arbitration
system.ruby.dir_cntrl3.memBuffer.memBankCount |        4547     12.72%     12.72% |           0      0.00%     12.72% |           0      0.00%     12.72% |           0      0.00%     12.72% |        4447     12.44%     25.16% |           0      0.00%     25.16% |           0      0.00%     25.16% |           0      0.00%     25.16% |        4428     12.39%     37.54% |           0      0.00%     37.54% |           0      0.00%     37.54% |           0      0.00%     37.54% |        4422     12.37%     49.91% |           0      0.00%     49.91% |           0      0.00%     49.91% |           0      0.00%     49.91% |        4609     12.89%     62.81% |           0      0.00%     62.81% |           0      0.00%     62.81% |           0      0.00%     62.81% |        4421     12.37%     75.17% |           0      0.00%     75.17% |           0      0.00%     75.17% |           0      0.00%     75.17% |        4488     12.55%     87.73% |           0      0.00%     87.73% |           0      0.00%     87.73% |           0      0.00%     87.73% |        4388     12.27%    100.00% |           0      0.00%    100.00% |           0      0.00%    100.00% |           0      0.00%    100.00% # Number of accesses per bank
system.ruby.dir_cntrl3.memBuffer.memBankCount::total        35750                       # Number of accesses per bank

system.ruby.dir_cntrl4.memBuffer.memReq         35722                       # Total number of memory requests
system.ruby.dir_cntrl4.memBuffer.memRead        23089                       # Number of memory reads
system.ruby.dir_cntrl4.memBuffer.memWrite        12633                       # Number of memory writes
system.ruby.dir_cntrl4.memBuffer.memRefresh       129507                       # Number of memory refreshes
system.ruby.dir_cntrl4.memBuffer.memWaitCycles       123375                       # Delay stalled at the head of the bank queue
system.ruby.dir_cntrl4.memBuffer.memInputQ          168                       # Delay in the input queue
system.ruby.dir_cntrl4.memBuffer.memBankQ         4426                       # Delay behind the head of the bank queue
system.ruby.dir_cntrl4.memBuffer.totalStalls       127969                       # Total number of stall cycles
system.ruby.dir_cntrl4.memBuffer.stallsPerReq     3.582358                       # Expected number of stall cycles per request
system.ruby.dir_cntrl4.memBuffer.memBankBusy       121159                       # memory stalls due to busy bank
system.ruby.dir_cntrl4.memBuffer.memBusBusy         1348                       # memory stalls due to busy bus
system.ruby.dir_cntrl4.memBuffer.memReadWriteBusy          306                       # memory stalls due to read write turnaround
system.ruby.dir_cntrl4.memBuffer.memDataBusBusy          166                       # memory stalls due to read read turnaround
system.ruby.dir_cntrl4.memBuffer.memArbWait          396                       # memory stalls due to arbitration
system.ruby.dir_cntrl4.memBuffer.memBankCount |           0      0.00%      0.00% |        4525     12.67%     12.67% |           0      0.00%     12.67% |           0      0.00%     12.67% |           0      0.00%     12.67% |        4503     12.61%     25.27% |           0      0.00%     25.27% |           0      0.00%     25.27% |           0      0.00%     25.27% |        4384     12.27%     37.55% |           0      0.00%     37.55% |           0      0.00%     37.55% |           0      0.00%     37.55% |        4425     12.39%     49.93% |           0      0.00%     49.93% |           0      0.00%     49.93% |           0      0.00%     49.93% |        4531     12.68%     62.62% |           0      0.00%     62.62% |           0      0.00%     62.62% |           0      0.00%     62.62% |        4452     12.46%     75.08% |           0      0.00%     75.08% |           0      0.00%     75.08% |           0      0.00%     75.08% |        4447     12.45%     87.53% |           0      0.00%     87.53% |           0      0.00%     87.53% |           0      0.00%     87.53% |        4455     12.47%    100.00% |           0      0.00%    100.00% |           0      0.00%    100.00% # Number of accesses per bank
system.ruby.dir_cntrl4.memBuffer.memBankCount::total        35722                       # Number of accesses per bank

system.ruby.dir_cntrl5.memBuffer.memReq         35740                       # Total number of memory requests
system.ruby.dir_cntrl5.memBuffer.memRead        23112                       # Number of memory reads
system.ruby.dir_cntrl5.memBuffer.memWrite        12628                       # Number of memory writes
system.ruby.dir_cntrl5.memBuffer.memRefresh       129268                       # Number of memory refreshes
system.ruby.dir_cntrl5.memBuffer.memWaitCycles       123276                       # Delay stalled at the head of the bank queue
system.ruby.dir_cntrl5.memBuffer.memInputQ          151                       # Delay in the input queue
system.ruby.dir_cntrl5.memBuffer.memBankQ         3955                       # Delay behind the head of the bank queue
system.ruby.dir_cntrl5.memBuffer.totalStalls       127382                       # Total number of stall cycles
system.ruby.dir_cntrl5.memBuffer.stallsPerReq     3.564130                       # Expected number of stall cycles per request
system.ruby.dir_cntrl5.memBuffer.memBankBusy       121064                       # memory stalls due to busy bank
system.ruby.dir_cntrl5.memBuffer.memBusBusy         1340                       # memory stalls due to busy bus
system.ruby.dir_cntrl5.memBuffer.memReadWriteBusy          310                       # memory stalls due to read write turnaround
system.ruby.dir_cntrl5.memBuffer.memDataBusBusy          154                       # memory stalls due to read read turnaround
system.ruby.dir_cntrl5.memBuffer.memArbWait          408                       # memory stalls due to arbitration
system.ruby.dir_cntrl5.memBuffer.memBankCount |           0      0.00%      0.00% |        4522     12.65%     12.65% |           0      0.00%     12.65% |           0      0.00%     12.65% |           0      0.00%     12.65% |        4497     12.58%     25.24% |           0      0.00%     25.24% |           0      0.00%     25.24% |           0      0.00%     25.24% |        4388     12.28%     37.51% |           0      0.00%     37.51% |           0      0.00%     37.51% |           0      0.00%     37.51% |        4356     12.19%     49.70% |           0      0.00%     49.70% |           0      0.00%     49.70% |           0      0.00%     49.70% |        4556     12.75%     62.45% |           0      0.00%     62.45% |           0      0.00%     62.45% |           0      0.00%     62.45% |        4433     12.40%     74.85% |           0      0.00%     74.85% |           0      0.00%     74.85% |           0      0.00%     74.85% |        4498     12.59%     87.44% |           0      0.00%     87.44% |           0      0.00%     87.44% |           0      0.00%     87.44% |        4490     12.56%    100.00% |           0      0.00%    100.00% |           0      0.00%    100.00% # Number of accesses per bank
system.ruby.dir_cntrl5.memBuffer.memBankCount::total        35740                       # Number of accesses per bank

system.ruby.dir_cntrl6.memBuffer.memReq         35741                       # Total number of memory requests
system.ruby.dir_cntrl6.memBuffer.memRead        23110                       # Number of memory reads
system.ruby.dir_cntrl6.memBuffer.memWrite        12631                       # Number of memory writes
system.ruby.dir_cntrl6.memBuffer.memRefresh       129373                       # Number of memory refreshes
system.ruby.dir_cntrl6.memBuffer.memWaitCycles       123959                       # Delay stalled at the head of the bank queue
system.ruby.dir_cntrl6.memBuffer.memInputQ          177                       # Delay in the input queue
system.ruby.dir_cntrl6.memBuffer.memBankQ         5167                       # Delay behind the head of the bank queue
system.ruby.dir_cntrl6.memBuffer.totalStalls       129303                       # Total number of stall cycles
system.ruby.dir_cntrl6.memBuffer.stallsPerReq     3.617778                       # Expected number of stall cycles per request
system.ruby.dir_cntrl6.memBuffer.memBankBusy       121694                       # memory stalls due to busy bank
system.ruby.dir_cntrl6.memBuffer.memBusBusy         1371                       # memory stalls due to busy bus
system.ruby.dir_cntrl6.memBuffer.memReadWriteBusy          329                       # memory stalls due to read write turnaround
system.ruby.dir_cntrl6.memBuffer.memDataBusBusy          163                       # memory stalls due to read read turnaround
system.ruby.dir_cntrl6.memBuffer.memArbWait          402                       # memory stalls due to arbitration
system.ruby.dir_cntrl6.memBuffer.memBankCount |           0      0.00%      0.00% |        4465     12.49%     12.49% |           0      0.00%     12.49% |           0      0.00%     12.49% |           0      0.00%     12.49% |        4446     12.44%     24.93% |           0      0.00%     24.93% |           0      0.00%     24.93% |           0      0.00%     24.93% |        4429     12.39%     37.32% |           0      0.00%     37.32% |           0      0.00%     37.32% |           0      0.00%     37.32% |        4433     12.40%     49.73% |           0      0.00%     49.73% |           0      0.00%     49.73% |           0      0.00%     49.73% |        4562     12.76%     62.49% |           0      0.00%     62.49% |           0      0.00%     62.49% |           0      0.00%     62.49% |        4497     12.58%     75.07% |           0      0.00%     75.07% |           0      0.00%     75.07% |           0      0.00%     75.07% |        4482     12.54%     87.61% |           0      0.00%     87.61% |           0      0.00%     87.61% |           0      0.00%     87.61% |        4427     12.39%    100.00% |           0      0.00%    100.00% |           0      0.00%    100.00% # Number of accesses per bank
system.ruby.dir_cntrl6.memBuffer.memBankCount::total        35741                       # Number of accesses per bank

system.ruby.dir_cntrl7.memBuffer.memReq         35786                       # Total number of memory requests
system.ruby.dir_cntrl7.memBuffer.memRead        23156                       # Number of memory reads
system.ruby.dir_cntrl7.memBuffer.memWrite        12630                       # Number of memory writes
system.ruby.dir_cntrl7.memBuffer.memRefresh       129553                       # Number of memory refreshes
system.ruby.dir_cntrl7.memBuffer.memWaitCycles       123570                       # Delay stalled at the head of the bank queue
system.ruby.dir_cntrl7.memBuffer.memInputQ          167                       # Delay in the input queue
system.ruby.dir_cntrl7.memBuffer.memBankQ         4533                       # Delay behind the head of the bank queue
system.ruby.dir_cntrl7.memBuffer.totalStalls       128270                       # Total number of stall cycles
system.ruby.dir_cntrl7.memBuffer.stallsPerReq     3.584363                       # Expected number of stall cycles per request
system.ruby.dir_cntrl7.memBuffer.memBankBusy       121385                       # memory stalls due to busy bank
system.ruby.dir_cntrl7.memBuffer.memBusBusy         1323                       # memory stalls due to busy bus
system.ruby.dir_cntrl7.memBuffer.memReadWriteBusy          274                       # memory stalls due to read write turnaround
system.ruby.dir_cntrl7.memBuffer.memDataBusBusy          188                       # memory stalls due to read read turnaround
system.ruby.dir_cntrl7.memBuffer.memArbWait          400                       # memory stalls due to arbitration
system.ruby.dir_cntrl7.memBuffer.memBankCount |           0      0.00%      0.00% |        4493     12.56%     12.56% |           0      0.00%     12.56% |           0      0.00%     12.56% |           0      0.00%     12.56% |        4452     12.44%     25.00% |           0      0.00%     25.00% |           0      0.00%     25.00% |           0      0.00%     25.00% |        4465     12.48%     37.47% |           0      0.00%     37.47% |           0      0.00%     37.47% |           0      0.00%     37.47% |        4318     12.07%     49.54% |           0      0.00%     49.54% |           0      0.00%     49.54% |           0      0.00%     49.54% |        4586     12.82%     62.35% |           0      0.00%     62.35% |           0      0.00%     62.35% |           0      0.00%     62.35% |        4506     12.59%     74.95% |           0      0.00%     74.95% |           0      0.00%     74.95% |           0      0.00%     74.95% |        4539     12.68%     87.63% |           0      0.00%     87.63% |           0      0.00%     87.63% |           0      0.00%     87.63% |        4427     12.37%    100.00% |           0      0.00%    100.00% |           0      0.00%    100.00% # Number of accesses per bank
system.ruby.dir_cntrl7.memBuffer.memBankCount::total        35786                       # Number of accesses per bank

system.ruby.dir_cntrl8.memBuffer.memReq         35845                       # Total number of memory requests
system.ruby.dir_cntrl8.memBuffer.memRead        23178                       # Number of memory reads
system.ruby.dir_cntrl8.memBuffer.memWrite        12667                       # Number of memory writes
system.ruby.dir_cntrl8.memBuffer.memRefresh       129490                       # Number of memory refreshes
system.ruby.dir_cntrl8.memBuffer.memWaitCycles       124402                       # Delay stalled at the head of the bank queue
system.ruby.dir_cntrl8.memBuffer.memInputQ          164                       # Delay in the input queue
system.ruby.dir_cntrl8.memBuffer.memBankQ         4901                       # Delay behind the head of the bank queue
system.ruby.dir_cntrl8.memBuffer.totalStalls       129467                       # Total number of stall cycles
system.ruby.dir_cntrl8.memBuffer.stallsPerReq     3.611857                       # Expected number of stall cycles per request
system.ruby.dir_cntrl8.memBuffer.memBankBusy       122104                       # memory stalls due to busy bank
system.ruby.dir_cntrl8.memBuffer.memBusBusy         1378                       # memory stalls due to busy bus
system.ruby.dir_cntrl8.memBuffer.memReadWriteBusy          357                       # memory stalls due to read write turnaround
system.ruby.dir_cntrl8.memBuffer.memDataBusBusy          161                       # memory stalls due to read read turnaround
system.ruby.dir_cntrl8.memBuffer.memArbWait          401                       # memory stalls due to arbitration
system.ruby.dir_cntrl8.memBuffer.memNotOld            1                       # memory stalls due to anti starvation
system.ruby.dir_cntrl8.memBuffer.memBankCount |           0      0.00%      0.00% |           0      0.00%      0.00% |        4482     12.50%     12.50% |           0      0.00%     12.50% |           0      0.00%     12.50% |           0      0.00%     12.50% |        4482     12.50%     25.01% |           0      0.00%     25.01% |           0      0.00%     25.01% |           0      0.00%     25.01% |        4485     12.51%     37.52% |           0      0.00%     37.52% |           0      0.00%     37.52% |           0      0.00%     37.52% |        4453     12.42%     49.94% |           0      0.00%     49.94% |           0      0.00%     49.94% |           0      0.00%     49.94% |        4516     12.60%     62.54% |           0      0.00%     62.54% |           0      0.00%     62.54% |           0      0.00%     62.54% |        4475     12.48%     75.03% |           0      0.00%     75.03% |           0      0.00%     75.03% |           0      0.00%     75.03% |        4464     12.45%     87.48% |           0      0.00%     87.48% |           0      0.00%     87.48% |           0      0.00%     87.48% |        4488     12.52%    100.00% |           0      0.00%    100.00% # Number of accesses per bank
system.ruby.dir_cntrl8.memBuffer.memBankCount::total        35845                       # Number of accesses per bank

system.ruby.dir_cntrl9.memBuffer.memReq         36193                       # Total number of memory requests
system.ruby.dir_cntrl9.memBuffer.memRead        23386                       # Number of memory reads
system.ruby.dir_cntrl9.memBuffer.memWrite        12807                       # Number of memory writes
system.ruby.dir_cntrl9.memBuffer.memRefresh       129456                       # Number of memory refreshes
system.ruby.dir_cntrl9.memBuffer.memWaitCycles       125456                       # Delay stalled at the head of the bank queue
system.ruby.dir_cntrl9.memBuffer.memInputQ          189                       # Delay in the input queue
system.ruby.dir_cntrl9.memBuffer.memBankQ         4989                       # Delay behind the head of the bank queue
system.ruby.dir_cntrl9.memBuffer.totalStalls       130634                       # Total number of stall cycles
system.ruby.dir_cntrl9.memBuffer.stallsPerReq     3.609372                       # Expected number of stall cycles per request
system.ruby.dir_cntrl9.memBuffer.memBankBusy       123029                       # memory stalls due to busy bank
system.ruby.dir_cntrl9.memBuffer.memBusBusy         1448                       # memory stalls due to busy bus
system.ruby.dir_cntrl9.memBuffer.memReadWriteBusy          328                       # memory stalls due to read write turnaround
system.ruby.dir_cntrl9.memBuffer.memDataBusBusy          175                       # memory stalls due to read read turnaround
system.ruby.dir_cntrl9.memBuffer.memArbWait          476                       # memory stalls due to arbitration
system.ruby.dir_cntrl9.memBuffer.memBankCount |           0      0.00%      0.00% |           0      0.00%      0.00% |        4499     12.43%     12.43% |           0      0.00%     12.43% |           0      0.00%     12.43% |           0      0.00%     12.43% |        4486     12.39%     24.83% |           0      0.00%     24.83% |           0      0.00%     24.83% |           0      0.00%     24.83% |        4423     12.22%     37.05% |           0      0.00%     37.05% |           0      0.00%     37.05% |           0      0.00%     37.05% |        4466     12.34%     49.39% |           0      0.00%     49.39% |           0      0.00%     49.39% |           0      0.00%     49.39% |        4550     12.57%     61.96% |           0      0.00%     61.96% |           0      0.00%     61.96% |           0      0.00%     61.96% |        4707     13.01%     74.96% |           0      0.00%     74.96% |           0      0.00%     74.96% |           0      0.00%     74.96% |        4547     12.56%     87.53% |           0      0.00%     87.53% |           0      0.00%     87.53% |           0      0.00%     87.53% |        4515     12.47%    100.00% |           0      0.00%    100.00% # Number of accesses per bank
system.ruby.dir_cntrl9.memBuffer.memBankCount::total        36193                       # Number of accesses per bank

system.ruby.dir_cntrl10.memBuffer.memReq        35977                       # Total number of memory requests
system.ruby.dir_cntrl10.memBuffer.memRead        23235                       # Number of memory reads
system.ruby.dir_cntrl10.memBuffer.memWrite        12742                       # Number of memory writes
system.ruby.dir_cntrl10.memBuffer.memRefresh       129185                       # Number of memory refreshes
system.ruby.dir_cntrl10.memBuffer.memWaitCycles       125377                       # Delay stalled at the head of the bank queue
system.ruby.dir_cntrl10.memBuffer.memInputQ          154                       # Delay in the input queue
system.ruby.dir_cntrl10.memBuffer.memBankQ         4815                       # Delay behind the head of the bank queue
system.ruby.dir_cntrl10.memBuffer.totalStalls       130346                       # Total number of stall cycles
system.ruby.dir_cntrl10.memBuffer.stallsPerReq     3.623037                       # Expected number of stall cycles per request
system.ruby.dir_cntrl10.memBuffer.memBankBusy       123048                       # memory stalls due to busy bank
system.ruby.dir_cntrl10.memBuffer.memBusBusy         1376                       # memory stalls due to busy bus
system.ruby.dir_cntrl10.memBuffer.memReadWriteBusy          323                       # memory stalls due to read write turnaround
system.ruby.dir_cntrl10.memBuffer.memDataBusBusy          166                       # memory stalls due to read read turnaround
system.ruby.dir_cntrl10.memBuffer.memArbWait          464                       # memory stalls due to arbitration
system.ruby.dir_cntrl10.memBuffer.memBankCount |           0      0.00%      0.00% |           0      0.00%      0.00% |        4468     12.42%     12.42% |           0      0.00%     12.42% |           0      0.00%     12.42% |           0      0.00%     12.42% |        4443     12.35%     24.77% |           0      0.00%     24.77% |           0      0.00%     24.77% |           0      0.00%     24.77% |        4443     12.35%     37.12% |           0      0.00%     37.12% |           0      0.00%     37.12% |           0      0.00%     37.12% |        4468     12.42%     49.54% |           0      0.00%     49.54% |           0      0.00%     49.54% |           0      0.00%     49.54% |        4511     12.54%     62.08% |           0      0.00%     62.08% |           0      0.00%     62.08% |           0      0.00%     62.08% |        4631     12.87%     74.95% |           0      0.00%     74.95% |           0      0.00%     74.95% |           0      0.00%     74.95% |        4541     12.62%     87.57% |           0      0.00%     87.57% |           0      0.00%     87.57% |           0      0.00%     87.57% |        4472     12.43%    100.00% |           0      0.00%    100.00% # Number of accesses per bank
system.ruby.dir_cntrl10.memBuffer.memBankCount::total        35977                       # Number of accesses per bank

system.ruby.dir_cntrl11.memBuffer.memReq        36025                       # Total number of memory requests
system.ruby.dir_cntrl11.memBuffer.memRead        23265                       # Number of memory reads
system.ruby.dir_cntrl11.memBuffer.memWrite        12760                       # Number of memory writes
system.ruby.dir_cntrl11.memBuffer.memRefresh       129742                       # Number of memory refreshes
system.ruby.dir_cntrl11.memBuffer.memWaitCycles       125104                       # Delay stalled at the head of the bank queue
system.ruby.dir_cntrl11.memBuffer.memInputQ          198                       # Delay in the input queue
system.ruby.dir_cntrl11.memBuffer.memBankQ         6147                       # Delay behind the head of the bank queue
system.ruby.dir_cntrl11.memBuffer.totalStalls       131449                       # Total number of stall cycles
system.ruby.dir_cntrl11.memBuffer.stallsPerReq     3.648827                       # Expected number of stall cycles per request
system.ruby.dir_cntrl11.memBuffer.memBankBusy       122707                       # memory stalls due to busy bank
system.ruby.dir_cntrl11.memBuffer.memBusBusy         1426                       # memory stalls due to busy bus
system.ruby.dir_cntrl11.memBuffer.memReadWriteBusy          304                       # memory stalls due to read write turnaround
system.ruby.dir_cntrl11.memBuffer.memDataBusBusy          198                       # memory stalls due to read read turnaround
system.ruby.dir_cntrl11.memBuffer.memArbWait          469                       # memory stalls due to arbitration
system.ruby.dir_cntrl11.memBuffer.memBankCount |           0      0.00%      0.00% |           0      0.00%      0.00% |        4469     12.41%     12.41% |           0      0.00%     12.41% |           0      0.00%     12.41% |           0      0.00%     12.41% |        4435     12.31%     24.72% |           0      0.00%     24.72% |           0      0.00%     24.72% |           0      0.00%     24.72% |        4378     12.15%     36.87% |           0      0.00%     36.87% |           0      0.00%     36.87% |           0      0.00%     36.87% |        4490     12.46%     49.33% |           0      0.00%     49.33% |           0      0.00%     49.33% |           0      0.00%     49.33% |        4520     12.55%     61.88% |           0      0.00%     61.88% |           0      0.00%     61.88% |           0      0.00%     61.88% |        4704     13.06%     74.94% |           0      0.00%     74.94% |           0      0.00%     74.94% |           0      0.00%     74.94% |        4496     12.48%     87.42% |           0      0.00%     87.42% |           0      0.00%     87.42% |           0      0.00%     87.42% |        4533     12.58%    100.00% |           0      0.00%    100.00% # Number of accesses per bank
system.ruby.dir_cntrl11.memBuffer.memBankCount::total        36025                       # Number of accesses per bank

system.ruby.dir_cntrl12.memBuffer.memReq        36136                       # Total number of memory requests
system.ruby.dir_cntrl12.memBuffer.memRead        23346                       # Number of memory reads
system.ruby.dir_cntrl12.memBuffer.memWrite        12790                       # Number of memory writes
system.ruby.dir_cntrl12.memBuffer.memRefresh       129553                       # Number of memory refreshes
system.ruby.dir_cntrl12.memBuffer.memWaitCycles       125425                       # Delay stalled at the head of the bank queue
system.ruby.dir_cntrl12.memBuffer.memInputQ         1538                       # Delay in the input queue
system.ruby.dir_cntrl12.memBuffer.memBankQ         9879                       # Delay behind the head of the bank queue
system.ruby.dir_cntrl12.memBuffer.totalStalls       136842                       # Total number of stall cycles
system.ruby.dir_cntrl12.memBuffer.stallsPerReq     3.786861                       # Expected number of stall cycles per request
system.ruby.dir_cntrl12.memBuffer.memBankBusy       123055                       # memory stalls due to busy bank
system.ruby.dir_cntrl12.memBuffer.memBusBusy         1417                       # memory stalls due to busy bus
system.ruby.dir_cntrl12.memBuffer.memReadWriteBusy          326                       # memory stalls due to read write turnaround
system.ruby.dir_cntrl12.memBuffer.memDataBusBusy          150                       # memory stalls due to read read turnaround
system.ruby.dir_cntrl12.memBuffer.memArbWait          477                       # memory stalls due to arbitration
system.ruby.dir_cntrl12.memBuffer.memBankCount |           0      0.00%      0.00% |           0      0.00%      0.00% |           0      0.00%      0.00% |        4452     12.32%     12.32% |           0      0.00%     12.32% |           0      0.00%     12.32% |           0      0.00%     12.32% |        4510     12.48%     24.80% |           0      0.00%     24.80% |           0      0.00%     24.80% |           0      0.00%     24.80% |        4414     12.21%     37.02% |           0      0.00%     37.02% |           0      0.00%     37.02% |           0      0.00%     37.02% |        4538     12.56%     49.57% |           0      0.00%     49.57% |           0      0.00%     49.57% |           0      0.00%     49.57% |        4511     12.48%     62.06% |           0      0.00%     62.06% |           0      0.00%     62.06% |           0      0.00%     62.06% |        4653     12.88%     74.93% |           0      0.00%     74.93% |           0      0.00%     74.93% |           0      0.00%     74.93% |        4470     12.37%     87.30% |           0      0.00%     87.30% |           0      0.00%     87.30% |           0      0.00%     87.30% |        4588     12.70%    100.00% # Number of accesses per bank
system.ruby.dir_cntrl12.memBuffer.memBankCount::total        36136                       # Number of accesses per bank

system.ruby.dir_cntrl13.memBuffer.memReq        36087                       # Total number of memory requests
system.ruby.dir_cntrl13.memBuffer.memRead        23284                       # Number of memory reads
system.ruby.dir_cntrl13.memBuffer.memWrite        12803                       # Number of memory writes
system.ruby.dir_cntrl13.memBuffer.memRefresh       129129                       # Number of memory refreshes
system.ruby.dir_cntrl13.memBuffer.memWaitCycles       125946                       # Delay stalled at the head of the bank queue
system.ruby.dir_cntrl13.memBuffer.memInputQ          193                       # Delay in the input queue
system.ruby.dir_cntrl13.memBuffer.memBankQ         6166                       # Delay behind the head of the bank queue
system.ruby.dir_cntrl13.memBuffer.totalStalls       132305                       # Total number of stall cycles
system.ruby.dir_cntrl13.memBuffer.stallsPerReq     3.666279                       # Expected number of stall cycles per request
system.ruby.dir_cntrl13.memBuffer.memBankBusy       123559                       # memory stalls due to busy bank
system.ruby.dir_cntrl13.memBuffer.memBusBusy         1396                       # memory stalls due to busy bus
system.ruby.dir_cntrl13.memBuffer.memReadWriteBusy          334                       # memory stalls due to read write turnaround
system.ruby.dir_cntrl13.memBuffer.memDataBusBusy          162                       # memory stalls due to read read turnaround
system.ruby.dir_cntrl13.memBuffer.memArbWait          495                       # memory stalls due to arbitration
system.ruby.dir_cntrl13.memBuffer.memBankCount |           0      0.00%      0.00% |           0      0.00%      0.00% |           0      0.00%      0.00% |        4464     12.37%     12.37% |           0      0.00%     12.37% |           0      0.00%     12.37% |           0      0.00%     12.37% |        4533     12.56%     24.93% |           0      0.00%     24.93% |           0      0.00%     24.93% |           0      0.00%     24.93% |        4447     12.32%     37.25% |           0      0.00%     37.25% |           0      0.00%     37.25% |           0      0.00%     37.25% |        4445     12.32%     49.57% |           0      0.00%     49.57% |           0      0.00%     49.57% |           0      0.00%     49.57% |        4473     12.40%     61.97% |           0      0.00%     61.97% |           0      0.00%     61.97% |           0      0.00%     61.97% |        4706     13.04%     75.01% |           0      0.00%     75.01% |           0      0.00%     75.01% |           0      0.00%     75.01% |        4448     12.33%     87.33% |           0      0.00%     87.33% |           0      0.00%     87.33% |           0      0.00%     87.33% |        4571     12.67%    100.00% # Number of accesses per bank
system.ruby.dir_cntrl13.memBuffer.memBankCount::total        36087                       # Number of accesses per bank

system.ruby.dir_cntrl14.memBuffer.memReq        36021                       # Total number of memory requests
system.ruby.dir_cntrl14.memBuffer.memRead        23227                       # Number of memory reads
system.ruby.dir_cntrl14.memBuffer.memWrite        12794                       # Number of memory writes
system.ruby.dir_cntrl14.memBuffer.memRefresh       129025                       # Number of memory refreshes
system.ruby.dir_cntrl14.memBuffer.memWaitCycles       125424                       # Delay stalled at the head of the bank queue
system.ruby.dir_cntrl14.memBuffer.memInputQ          245                       # Delay in the input queue
system.ruby.dir_cntrl14.memBuffer.memBankQ         5978                       # Delay behind the head of the bank queue
system.ruby.dir_cntrl14.memBuffer.totalStalls       131647                       # Total number of stall cycles
system.ruby.dir_cntrl14.memBuffer.stallsPerReq     3.654729                       # Expected number of stall cycles per request
system.ruby.dir_cntrl14.memBuffer.memBankBusy       123100                       # memory stalls due to busy bank
system.ruby.dir_cntrl14.memBuffer.memBusBusy         1414                       # memory stalls due to busy bus
system.ruby.dir_cntrl14.memBuffer.memReadWriteBusy          305                       # memory stalls due to read write turnaround
system.ruby.dir_cntrl14.memBuffer.memDataBusBusy          172                       # memory stalls due to read read turnaround
system.ruby.dir_cntrl14.memBuffer.memArbWait          433                       # memory stalls due to arbitration
[...]
system.ruby.l2_cntrl0.IM.Mem_Data::total       234841                      

system.ruby.l2_cntrl0.SS_MB.L1_GETS      |          11      0.65%      0.65% |        1480     87.83%     88.49% |          96      5.70%     94.18% |           9      0.53%     94.72% |           8      0.47%     95.19% |          10      0.59%     95.79% |           9      0.53%     96.32% |           4      0.24%     96.56% |           9      0.53%     97.09% |          10      0.59%     97.69% |           5      0.30%     97.98% |           5      0.30%     98.28% |           9      0.53%     98.81% |           7      0.42%     99.23% |           6      0.36%     99.58% |           7      0.42%    100.00%
system.ruby.l2_cntrl0.SS_MB.L1_GETS::total         1685                      

system.ruby.l2_cntrl0.SS_MB.L1_GETX      |           0      0.00%      0.00% |         117    100.00%    100.00% |           0      0.00%    100.00% |           0      0.00%    100.00% |           0      0.00%    100.00% |           0      0.00%    100.00% |           0      0.00%    100.00% |           0      0.00%    100.00% |           0      0.00%    100.00% |           0      0.00%    100.00% |           0      0.00%    100.00% |           0      0.00%    100.00% |           0      0.00%    100.00% |           0      0.00%    100.00% |           0      0.00%    100.00% |           0      0.00%    100.00%
system.ruby.l2_cntrl0.SS_MB.L1_GETX::total          117                      

system.ruby.l2_cntrl0.SS_MB.L1_UPGRADE   |           0      0.00%      0.00% |         144     97.96%     97.96% |           0      0.00%     97.96% |           0      0.00%     97.96% |           0      0.00%     97.96% |           1      0.68%     98.64% |           0      0.00%     98.64% |           0      0.00%     98.64% |           0      0.00%     98.64% |           0      0.00%     98.64% |           0      0.00%     98.64% |           1      0.68%     99.32% |           0      0.00%     99.32% |           0      0.00%     99.32% |           1      0.68%    100.00% |           0      0.00%    100.00%
system.ruby.l2_cntrl0.SS_MB.L1_UPGRADE::total          147                      

system.ruby.l2_cntrl0.SS_MB.Exclusive_Unblock |         324      6.89%      6.89% |         745     15.85%     22.74% |         325      6.91%     29.66% |         252      5.36%     35.02% |         263      5.60%     40.62% |         284      6.04%     46.66% |         256      5.45%     52.11% |         262      5.57%     57.68% |         260      5.53%     63.21% |         237      5.04%     68.26% |         249      5.30%     73.55% |         256      5.45%     79.00% |         244      5.19%     84.19% |         233      4.96%     89.15% |         242      5.15%     94.30% |         268      5.70%    100.00%
system.ruby.l2_cntrl0.SS_MB.Exclusive_Unblock::total         4700                      

system.ruby.l2_cntrl0.MT_MB.L1_GETS      |           1      0.08%      0.08% |        1320     99.55%     99.62% |           0      0.00%     99.62% |           1      0.08%     99.70% |           0      0.00%     99.70% |           0      0.00%     99.70% |           0      0.00%     99.70% |           1      0.08%     99.77% |           1      0.08%     99.85% |           0      0.00%     99.85% |           0      0.00%     99.85% |           0      0.00%     99.85% |           1      0.08%     99.92% |           0      0.00%     99.92% |           1      0.08%    100.00% |           0      0.00%    100.00%
system.ruby.l2_cntrl0.MT_MB.L1_GETS::total         1326                      

system.ruby.l2_cntrl0.MT_MB.L1_GETX      |           0      0.00%      0.00% |         841     99.64%     99.64% |           0      0.00%     99.64% |           0      0.00%     99.64% |           0      0.00%     99.64% |           0      0.00%     99.64% |           0      0.00%     99.64% |           1      0.12%     99.76% |           1      0.12%     99.88% |           0      0.00%     99.88% |           0      0.00%     99.88% |           0      0.00%     99.88% |           0      0.00%     99.88% |           0      0.00%     99.88% |           0      0.00%     99.88% |           1      0.12%    100.00%
system.ruby.l2_cntrl0.MT_MB.L1_GETX::total          844                      

system.ruby.l2_cntrl0.MT_MB.L1_PUTX      |           0      0.00%      0.00% |           1     33.33%     33.33% |           0      0.00%     33.33% |           0      0.00%     33.33% |           0      0.00%     33.33% |           1     33.33%     66.67% |           0      0.00%     66.67% |           1     33.33%    100.00% |           0      0.00%    100.00% |           0      0.00%    100.00% |           0      0.00%    100.00% |           0      0.00%    100.00% |           0      0.00%    100.00% |           0      0.00%    100.00% |           0      0.00%    100.00% |           0      0.00%    100.00%
system.ruby.l2_cntrl0.MT_MB.L1_PUTX::total            3                      

system.ruby.l2_cntrl0.MT_MB.Exclusive_Unblock |       61247      6.39%      6.39% |       60160      6.27%     12.66% |       59455      6.20%     18.86% |       59157      6.17%     25.03% |       59093      6.16%     31.19% |       58651      6.12%     37.31% |       58795      6.13%     43.44% |       58906      6.14%     49.59% |       59291      6.18%     55.77% |       60006      6.26%     62.03% |       60059      6.26%     68.29% |       60289      6.29%     74.58% |       60714      6.33%     80.91% |       60920      6.35%     87.26% |       61220      6.38%     93.65% |       60906      6.35%    100.00%
system.ruby.l2_cntrl0.MT_MB.Exclusive_Unblock::total       958869                      

system.ruby.l2_cntrl0.MT_IIB.L1_GETS     |          27      0.70%      0.70% |        3211     83.47%     84.17% |         232      6.03%     90.20% |          27      0.70%     90.90% |          28      0.73%     91.63% |          34      0.88%     92.51% |          29      0.75%     93.27% |          31      0.81%     94.07% |          30      0.78%     94.85% |          27      0.70%     95.55% |          30      0.78%     96.33% |          26      0.68%     97.01% |          27      0.70%     97.71% |          29      0.75%     98.47% |          29      0.75%     99.22% |          30      0.78%    100.00%
system.ruby.l2_cntrl0.MT_IIB.L1_GETS::total         3847                      

system.ruby.l2_cntrl0.MT_IIB.L1_GETX     |           0      0.00%      0.00% |          88    100.00%    100.00% |           0      0.00%    100.00% |           0      0.00%    100.00% |           0      0.00%    100.00% |           0      0.00%    100.00% |           0      0.00%    100.00% |           0      0.00%    100.00% |           0      0.00%    100.00% |           0      0.00%    100.00% |           0      0.00%    100.00% |           0      0.00%    100.00% |           0      0.00%    100.00% |           0      0.00%    100.00% |           0      0.00%    100.00% |           0      0.00%    100.00%
system.ruby.l2_cntrl0.MT_IIB.L1_GETX::total           88                      

system.ruby.l2_cntrl0.MT_IIB.L1_UPGRADE  |           0      0.00%      0.00% |           1     33.33%     33.33% |           0      0.00%     33.33% |           0      0.00%     33.33% |           0      0.00%     33.33% |           0      0.00%     33.33% |           0      0.00%     33.33% |           0      0.00%     33.33% |           1     33.33%     66.67% |           1     33.33%    100.00% |           0      0.00%    100.00% |           0      0.00%    100.00% |           0      0.00%    100.00% |           0      0.00%    100.00% |           0      0.00%    100.00% |           0      0.00%    100.00%
system.ruby.l2_cntrl0.MT_IIB.L1_UPGRADE::total            3                      

system.ruby.l2_cntrl0.MT_IIB.L1_PUTX     |           1    100.00%    100.00% |           0      0.00%    100.00% |           0      0.00%    100.00% |           0      0.00%    100.00% |           0      0.00%    100.00% |           0      0.00%    100.00% |           0      0.00%    100.00% |           0      0.00%    100.00% |           0      0.00%    100.00% |           0      0.00%    100.00% |           0      0.00%    100.00% |           0      0.00%    100.00% |           0      0.00%    100.00% |           0      0.00%    100.00% |           0      0.00%    100.00% |           0      0.00%    100.00%
system.ruby.l2_cntrl0.MT_IIB.L1_PUTX::total            1                      

system.ruby.l2_cntrl0.MT_IIB.WB_Data     |         734      6.64%      6.64% |        1152     10.42%     17.06% |         732      6.62%     23.68% |         647      5.85%     29.53% |         658      5.95%     35.48% |         680      6.15%     41.63% |         653      5.91%     47.54% |         665      6.01%     53.55% |         650      5.88%     59.43% |         628      5.68%     65.11% |         649      5.87%     70.98% |         649      5.87%     76.85% |         628      5.68%     82.53% |         630      5.70%     88.23% |         641      5.80%     94.03% |         660      5.97%    100.00%
system.ruby.l2_cntrl0.MT_IIB.WB_Data::total        11056                      

system.ruby.l2_cntrl0.MT_IIB.WB_Data_clean |           0      0.00%      0.00% |           0      0.00%      0.00% |           0      0.00%      0.00% |           4     28.57%     28.57% |           1      7.14%     35.71% |           1      7.14%     42.86% |           1      7.14%     50.00% |           1      7.14%     57.14% |           2     14.29%     71.43% |           0      0.00%     71.43% |           1      7.14%     78.57% |           1      7.14%     85.71% |           0      0.00%     85.71% |           0      0.00%     85.71% |           0      0.00%     85.71% |           2     14.29%    100.00%
system.ruby.l2_cntrl0.MT_IIB.WB_Data_clean::total           14                      

system.ruby.l2_cntrl0.MT_IIB.Unblock     |           2      9.09%      9.09% |           0      0.00%      9.09% |           2      9.09%     18.18% |           1      4.55%     22.73% |           2      9.09%     31.82% |           3     13.64%     45.45% |           1      4.55%     50.00% |           0      0.00%     50.00% |           0      0.00%     50.00% |           2      9.09%     59.09% |           0      0.00%     59.09% |           2      9.09%     68.18% |           1      4.55%     72.73% |           3     13.64%     86.36% |           2      9.09%     95.45% |           1      4.55%    100.00%
system.ruby.l2_cntrl0.MT_IIB.Unblock::total           22                      

system.ruby.l2_cntrl0.MT_IB.WB_Data      |           2      9.09%      9.09% |           0      0.00%      9.09% |           2      9.09%     18.18% |           1      4.55%     22.73% |           2      9.09%     31.82% |           3     13.64%     45.45% |           1      4.55%     50.00% |           0      0.00%     50.00% |           0      0.00%     50.00% |           2      9.09%     59.09% |           0      0.00%     59.09% |           2      9.09%     68.18% |           1      4.55%     72.73% |           3     13.64%     86.36% |           2      9.09%     95.45% |           1      4.55%    100.00%
system.ruby.l2_cntrl0.MT_IB.WB_Data::total           22                      

system.ruby.l2_cntrl0.MT_SB.L1_GETS      |           0      0.00%      0.00% |           4    100.00%    100.00% |           0      0.00%    100.00% |           0      0.00%    100.00% |           0      0.00%    100.00% |           0      0.00%    100.00% |           0      0.00%    100.00% |           0      0.00%    100.00% |           0      0.00%    100.00% |           0      0.00%    100.00% |           0      0.00%    100.00% |           0      0.00%    100.00% |           0      0.00%    100.00% |           0      0.00%    100.00% |           0      0.00%    100.00% |           0      0.00%    100.00%
system.ruby.l2_cntrl0.MT_SB.L1_GETS::total            4                      

system.ruby.l2_cntrl0.MT_SB.Unblock      |         734      6.63%      6.63% |        1152     10.41%     17.04% |         732      6.61%     23.65% |         651      5.88%     29.53% |         659      5.95%     35.48% |         681      6.15%     41.64% |         654      5.91%     47.54% |         666      6.02%     53.56% |         652      5.89%     59.45% |         628      5.67%     65.12% |         650      5.87%     70.99% |         650      5.87%     76.87% |         628      5.67%     82.54% |         630      5.69%     88.23% |         641      5.79%     94.02% |         662      5.98%    100.00%
system.ruby.l2_cntrl0.MT_SB.Unblock::total        11070                      

system.ruby.dir_cntrl0.Fetch             |       23221      6.25%      6.25% |       23260      6.26%     12.51% |       23213      6.25%     18.76% |       23090      6.22%     24.98% |       23089      6.22%     31.20% |       23112      6.22%     37.42% |       23110      6.22%     43.64% |       23156      6.23%     49.88% |       23178      6.24%     56.12% |       23386      6.30%     62.42% |       23235      6.26%     68.67% |       23265      6.26%     74.94% |       23346      6.29%     81.22% |       23284      6.27%     87.49% |       23227      6.25%     93.74% |       23235      6.26%    100.00%
system.ruby.dir_cntrl0.Fetch::total            371407                      

system.ruby.dir_cntrl0.Data              |       12788      6.28%      6.28% |       12781      6.27%     12.55% |       12760      6.26%     18.82% |       12660      6.21%     25.03% |       12633      6.20%     31.23% |       12628      6.20%     37.43% |       12631      6.20%     43.63% |       12630      6.20%     49.83% |       12667      6.22%     56.05% |       12807      6.29%     62.34% |       12742      6.26%     68.59% |       12760      6.26%     74.86% |       12790      6.28%     81.14% |       12803      6.29%     87.42% |       12794      6.28%     93.70% |       12827      6.30%    100.00%
system.ruby.dir_cntrl0.Data::total             203701                      

system.ruby.dir_cntrl0.Memory_Data       |       23221      6.25%      6.25% |       23260      6.26%     12.51% |       23213      6.25%     18.76% |       23090      6.22%     24.98% |       23089      6.22%     31.20% |       23112      6.22%     37.42% |       23110      6.22%     43.64% |       23156      6.23%     49.88% |       23178      6.24%     56.12% |       23386      6.30%     62.42% |       23235      6.26%     68.67% |       23265      6.26%     74.94% |       23346      6.29%     81.22% |       23284      6.27%     87.49% |       23227      6.25%     93.74% |       23235      6.26%    100.00%
system.ruby.dir_cntrl0.Memory_Data::total       371407                      

system.ruby.dir_cntrl0.Memory_Ack        |       12788      6.28%      6.28% |       12781      6.27%     12.55% |       12760      6.26%     18.82% |       12660      6.21%     25.03% |       12633      6.20%     31.23% |       12628      6.20%     37.43% |       12631      6.20%     43.63% |       12630      6.20%     49.83% |       12667      6.22%     56.05% |       12807      6.29%     62.34% |       12742      6.26%     68.59% |       12760      6.26%     74.86% |       12790      6.28%     81.14% |       12803      6.29%     87.42% |       12794      6.28%     93.70% |       12827      6.30%    100.00%
system.ruby.dir_cntrl0.Memory_Ack::total       203701                      

system.ruby.dir_cntrl0.CleanReplacement  |        6337      6.20%      6.20% |        6383      6.25%     12.45% |        6357      6.22%     18.67% |        6334      6.20%     24.87% |        6360      6.22%     31.10% |        6388      6.25%     37.35% |        6383      6.25%     43.60% |        6430      6.29%     49.89% |        6415      6.28%     56.17% |        6483      6.35%     62.51% |        6397      6.26%     68.77% |        6409      6.27%     75.05% |        6460      6.32%     81.37% |        6385      6.25%     87.62% |        6337      6.20%     93.82% |        6312      6.18%    100.00%
system.ruby.dir_cntrl0.CleanReplacement::total       102170                      

system.ruby.dir_cntrl0.I.Fetch           |       23221      6.25%      6.25% |       23260      6.26%     12.51% |       23213      6.25%     18.76% |       23090      6.22%     24.98% |       23089      6.22%     31.20% |       23112      6.22%     37.42% |       23110      6.22%     43.64% |       23156      6.23%     49.88% |       23178      6.24%     56.12% |       23386      6.30%     62.42% |       23235      6.26%     68.67% |       23265      6.26%     74.94% |       23346      6.29%     81.22% |       23284      6.27%     87.49% |       23227      6.25%     93.74% |       23235      6.26%    100.00%
system.ruby.dir_cntrl0.I.Fetch::total          371407                      

system.ruby.dir_cntrl0.M.Data            |       12788      6.28%      6.28% |       12781      6.27%     12.55% |       12760      6.26%     18.82% |       12660      6.21%     25.03% |       12633      6.20%     31.23% |       12628      6.20%     37.43% |       12631      6.20%     43.63% |       12630      6.20%     49.83% |       12667      6.22%     56.05% |       12807      6.29%     62.34% |       12742      6.26%     68.59% |       12760      6.26%     74.86% |       12790      6.28%     81.14% |       12803      6.29%     87.42% |       12794      6.28%     93.70% |       12827      6.30%    100.00%
system.ruby.dir_cntrl0.M.Data::total           203701                      

system.ruby.dir_cntrl0.M.CleanReplacement |        6337      6.20%      6.20% |        6383      6.25%     12.45% |        6357      6.22%     18.67% |        6334      6.20%     24.87% |        6360      6.22%     31.10% |        6388      6.25%     37.35% |        6383      6.25%     43.60% |        6430      6.29%     49.89% |        6415      6.28%     56.17% |        6483      6.35%     62.51% |        6397      6.26%     68.77% |        6409      6.27%     75.05% |        6460      6.32%     81.37% |        6385      6.25%     87.62% |        6337      6.20%     93.82% |        6312      6.18%    100.00%
system.ruby.dir_cntrl0.M.CleanReplacement::total       102170                      

system.ruby.dir_cntrl0.IM.Memory_Data    |       23221      6.25%      6.25% |       23260      6.26%     12.51% |       23213      6.25%     18.76% |       23090      6.22%     24.98% |       23089      6.22%     31.20% |       23112      6.22%     37.42% |       23110      6.22%     43.64% |       23156      6.23%     49.88% |       23178      6.24%     56.12% |       23386      6.30%     62.42% |       23235      6.26%     68.67% |       23265      6.26%     74.94% |       23346      6.29%     81.22% |       23284      6.27%     87.49% |       23227      6.25%     93.74% |       23235      6.26%    100.00%
system.ruby.dir_cntrl0.IM.Memory_Data::total       371407                      

system.ruby.dir_cntrl0.MI.Memory_Ack     |       12788      6.28%      6.28% |       12781      6.27%     12.55% |       12760      6.26%     18.82% |       12660      6.21%     25.03% |       12633      6.20%     31.23% |       12628      6.20%     37.43% |       12631      6.20%     43.63% |       12630      6.20%     49.83% |       12667      6.22%     56.05% |       12807      6.29%     62.34% |       12742      6.26%     68.59% |       12760      6.26%     74.86% |       12790      6.28%     81.14% |       12803      6.29%     87.42% |       12794      6.28%     93.70% |       12827      6.30%    100.00%
system.ruby.dir_cntrl0.MI.Memory_Ack::total       203701                      


---------- End Simulation Statistics   ----------
