
---------- Begin Simulation Statistics ----------
sim_seconds                                  1.157104                       # Number of seconds simulated
sim_ticks                                1157104298000                       # Number of ticks simulated
final_tick                               1157104298000                       # Number of ticks from beginning of simulation (restored from checkpoints and never reset)
sim_freq                                 1000000000000                       # Frequency of simulated ticks
host_inst_rate                                 133096                       # Simulator instruction rate (inst/s)
host_op_rate                                   205920                       # Simulator op (including micro ops) rate (op/s)
host_tick_rate                               76574068                       # Simulator tick rate (ticks/s)
host_mem_usage                                 365008                       # Number of bytes of host memory used
host_seconds                                 15110.92                       # Real time elapsed on the host
sim_insts                                  2011196025                       # Number of instructions simulated
sim_ops                                    3111633722                       # Number of ops (including micro ops) simulated
system.ruby.l2_cntrl5.L2cache.demand_hits      1327790                       # Number of cache demand hits
system.ruby.l2_cntrl5.L2cache.demand_misses        14859                       # Number of cache demand misses
system.ruby.l2_cntrl5.L2cache.demand_accesses      1342649                       # Number of cache demand accesses
system.ruby.l2_cntrl4.L2cache.demand_hits      1499679                       # Number of cache demand hits
system.ruby.l2_cntrl4.L2cache.demand_misses        14044                       # Number of cache demand misses
system.ruby.l2_cntrl4.L2cache.demand_accesses      1513723                       # Number of cache demand accesses
system.ruby.l2_cntrl11.L2cache.demand_hits      1041518                       # Number of cache demand hits
system.ruby.l2_cntrl11.L2cache.demand_misses        11598                       # Number of cache demand misses
system.ruby.l2_cntrl11.L2cache.demand_accesses      1053116                       # Number of cache demand accesses
system.ruby.l2_cntrl10.L2cache.demand_hits       977693                       # Number of cache demand hits
system.ruby.l2_cntrl10.L2cache.demand_misses        13282                       # Number of cache demand misses
system.ruby.l2_cntrl10.L2cache.demand_accesses       990975                       # Number of cache demand accesses
system.ruby.l2_cntrl13.L2cache.demand_hits       864324                       # Number of cache demand hits
system.ruby.l2_cntrl13.L2cache.demand_misses        12282                       # Number of cache demand misses
system.ruby.l2_cntrl13.L2cache.demand_accesses       876606                       # Number of cache demand accesses
system.ruby.l2_cntrl12.L2cache.demand_hits      1085263                       # Number of cache demand hits
system.ruby.l2_cntrl12.L2cache.demand_misses        11449                       # Number of cache demand misses
system.ruby.l2_cntrl12.L2cache.demand_accesses      1096712                       # Number of cache demand accesses
system.ruby.l2_cntrl15.L2cache.demand_hits       845158                       # Number of cache demand hits
system.ruby.l2_cntrl15.L2cache.demand_misses        10557                       # Number of cache demand misses
system.ruby.l2_cntrl15.L2cache.demand_accesses       855715                       # Number of cache demand accesses
system.ruby.l2_cntrl14.L2cache.demand_hits      1216192                       # Number of cache demand hits
system.ruby.l2_cntrl14.L2cache.demand_misses        10815                       # Number of cache demand misses
system.ruby.l2_cntrl14.L2cache.demand_accesses      1227007                       # Number of cache demand accesses
system.ruby.l1_cntrl4.L1Dcache.demand_hits     66547548                       # Number of cache demand hits
system.ruby.l1_cntrl4.L1Dcache.demand_misses      1511634                       # Number of cache demand misses
system.ruby.l1_cntrl4.L1Dcache.demand_accesses     68059182                       # Number of cache demand accesses
system.ruby.l1_cntrl4.L1Icache.demand_hits    175809213                       # Number of cache demand hits
system.ruby.l1_cntrl4.L1Icache.demand_misses          532                       # Number of cache demand misses
system.ruby.l1_cntrl4.L1Icache.demand_accesses    175809745                       # Number of cache demand accesses
system.ruby.l1_cntrl4.prefetcher.miss_observed            0                       # number of misses observed
system.ruby.l1_cntrl4.prefetcher.allocated_streams            0                       # number of streams allocated for prefetching
system.ruby.l1_cntrl4.prefetcher.prefetches_requested            0                       # number of prefetch requests made
system.ruby.l1_cntrl4.prefetcher.prefetches_accepted            0                       # number of prefetch requests accepted
system.ruby.l1_cntrl4.prefetcher.dropped_prefetches            0                       # number of prefetch requests dropped
system.ruby.l1_cntrl4.prefetcher.hits               0                       # number of prefetched blocks accessed
system.ruby.l1_cntrl4.prefetcher.partial_hits            0                       # number of misses observed for a block being prefetched
system.ruby.l1_cntrl4.prefetcher.pages_crossed            0                       # number of prefetches across pages
system.ruby.l1_cntrl4.prefetcher.misses_on_prefetched_blocks            0                       # number of misses for blocks that were prefetched, yet missed
system.ruby.l1_cntrl5.L1Dcache.demand_hits     66588959                       # Number of cache demand hits
system.ruby.l1_cntrl5.L1Dcache.demand_misses      1521590                       # Number of cache demand misses
system.ruby.l1_cntrl5.L1Dcache.demand_accesses     68110549                       # Number of cache demand accesses
system.ruby.l1_cntrl5.L1Icache.demand_hits    175957959                       # Number of cache demand hits
system.ruby.l1_cntrl5.L1Icache.demand_misses          524                       # Number of cache demand misses
system.ruby.l1_cntrl5.L1Icache.demand_accesses    175958483                       # Number of cache demand accesses
system.ruby.l1_cntrl5.prefetcher.miss_observed            0                       # number of misses observed
system.ruby.l1_cntrl5.prefetcher.allocated_streams            0                       # number of streams allocated for prefetching
system.ruby.l1_cntrl5.prefetcher.prefetches_requested            0                       # number of prefetch requests made
system.ruby.l1_cntrl5.prefetcher.prefetches_accepted            0                       # number of prefetch requests accepted
system.ruby.l1_cntrl5.prefetcher.dropped_prefetches            0                       # number of prefetch requests dropped
system.ruby.l1_cntrl5.prefetcher.hits               0                       # number of prefetched blocks accessed
system.ruby.l1_cntrl5.prefetcher.partial_hits            0                       # number of misses observed for a block being prefetched
system.ruby.l1_cntrl5.prefetcher.pages_crossed            0                       # number of prefetches across pages
system.ruby.l1_cntrl5.prefetcher.misses_on_prefetched_blocks            0                       # number of misses for blocks that were prefetched, yet missed
system.ruby.l1_cntrl6.L1Dcache.demand_hits     67137258                       # Number of cache demand hits
system.ruby.l1_cntrl6.L1Dcache.demand_misses      1420416                       # Number of cache demand misses
system.ruby.l1_cntrl6.L1Dcache.demand_accesses     68557674                       # Number of cache demand accesses
system.ruby.l1_cntrl6.L1Icache.demand_hits    176420018                       # Number of cache demand hits
system.ruby.l1_cntrl6.L1Icache.demand_misses          481                       # Number of cache demand misses
system.ruby.l1_cntrl6.L1Icache.demand_accesses    176420499                       # Number of cache demand accesses
system.ruby.l1_cntrl6.prefetcher.miss_observed            0                       # number of misses observed
system.ruby.l1_cntrl6.prefetcher.allocated_streams            0                       # number of streams allocated for prefetching
system.ruby.l1_cntrl6.prefetcher.prefetches_requested            0                       # number of prefetch requests made
system.ruby.l1_cntrl6.prefetcher.prefetches_accepted            0                       # number of prefetch requests accepted
system.ruby.l1_cntrl6.prefetcher.dropped_prefetches            0                       # number of prefetch requests dropped
system.ruby.l1_cntrl6.prefetcher.hits               0                       # number of prefetched blocks accessed
system.ruby.l1_cntrl6.prefetcher.partial_hits            0                       # number of misses observed for a block being prefetched
system.ruby.l1_cntrl6.prefetcher.pages_crossed            0                       # number of prefetches across pages
system.ruby.l1_cntrl6.prefetcher.misses_on_prefetched_blocks            0                       # number of misses for blocks that were prefetched, yet missed
system.ruby.l1_cntrl7.L1Dcache.demand_hits     69232812                       # Number of cache demand hits
system.ruby.l1_cntrl7.L1Dcache.demand_misses      1132051                       # Number of cache demand misses
system.ruby.l1_cntrl7.L1Dcache.demand_accesses     70364863                       # Number of cache demand accesses
system.ruby.l1_cntrl7.L1Icache.demand_hits    176098010                       # Number of cache demand hits
system.ruby.l1_cntrl7.L1Icache.demand_misses          484                       # Number of cache demand misses
system.ruby.l1_cntrl7.L1Icache.demand_accesses    176098494                       # Number of cache demand accesses
system.ruby.l1_cntrl7.prefetcher.miss_observed            0                       # number of misses observed
system.ruby.l1_cntrl7.prefetcher.allocated_streams            0                       # number of streams allocated for prefetching
system.ruby.l1_cntrl7.prefetcher.prefetches_requested            0                       # number of prefetch requests made
system.ruby.l1_cntrl7.prefetcher.prefetches_accepted            0                       # number of prefetch requests accepted
system.ruby.l1_cntrl7.prefetcher.dropped_prefetches            0                       # number of prefetch requests dropped
system.ruby.l1_cntrl7.prefetcher.hits               0                       # number of prefetched blocks accessed
system.ruby.l1_cntrl7.prefetcher.partial_hits            0                       # number of misses observed for a block being prefetched
system.ruby.l1_cntrl7.prefetcher.pages_crossed            0                       # number of prefetches across pages
system.ruby.l1_cntrl7.prefetcher.misses_on_prefetched_blocks            0                       # number of misses for blocks that were prefetched, yet missed
system.ruby.l1_cntrl0.L1Dcache.demand_hits     74551821                       # Number of cache demand hits
system.ruby.l1_cntrl0.L1Dcache.demand_misses      1312062                       # Number of cache demand misses
system.ruby.l1_cntrl0.L1Dcache.demand_accesses     75863883                       # Number of cache demand accesses
system.ruby.l1_cntrl0.L1Icache.demand_hits    201275660                       # Number of cache demand hits
system.ruby.l1_cntrl0.L1Icache.demand_misses         1504                       # Number of cache demand misses
system.ruby.l1_cntrl0.L1Icache.demand_accesses    201277164                       # Number of cache demand accesses
system.ruby.l1_cntrl0.prefetcher.miss_observed            0                       # number of misses observed
system.ruby.l1_cntrl0.prefetcher.allocated_streams            0                       # number of streams allocated for prefetching
system.ruby.l1_cntrl0.prefetcher.prefetches_requested            0                       # number of prefetch requests made
system.ruby.l1_cntrl0.prefetcher.prefetches_accepted            0                       # number of prefetch requests accepted
system.ruby.l1_cntrl0.prefetcher.dropped_prefetches            0                       # number of prefetch requests dropped
system.ruby.l1_cntrl0.prefetcher.hits               0                       # number of prefetched blocks accessed
system.ruby.l1_cntrl0.prefetcher.partial_hits            0                       # number of misses observed for a block being prefetched
system.ruby.l1_cntrl0.prefetcher.pages_crossed            0                       # number of prefetches across pages
system.ruby.l1_cntrl0.prefetcher.misses_on_prefetched_blocks            0                       # number of misses for blocks that were prefetched, yet missed
system.ruby.l1_cntrl1.L1Dcache.demand_hits     68927812                       # Number of cache demand hits
system.ruby.l1_cntrl1.L1Dcache.demand_misses      1042812                       # Number of cache demand misses
system.ruby.l1_cntrl1.L1Dcache.demand_accesses     69970624                       # Number of cache demand accesses
system.ruby.l1_cntrl1.L1Icache.demand_hits    175757112                       # Number of cache demand hits
system.ruby.l1_cntrl1.L1Icache.demand_misses          528                       # Number of cache demand misses
system.ruby.l1_cntrl1.L1Icache.demand_accesses    175757640                       # Number of cache demand accesses
system.ruby.l1_cntrl1.prefetcher.miss_observed            0                       # number of misses observed
system.ruby.l1_cntrl1.prefetcher.allocated_streams            0                       # number of streams allocated for prefetching
system.ruby.l1_cntrl1.prefetcher.prefetches_requested            0                       # number of prefetch requests made
system.ruby.l1_cntrl1.prefetcher.prefetches_accepted            0                       # number of prefetch requests accepted
system.ruby.l1_cntrl1.prefetcher.dropped_prefetches            0                       # number of prefetch requests dropped
system.ruby.l1_cntrl1.prefetcher.hits               0                       # number of prefetched blocks accessed
system.ruby.l1_cntrl1.prefetcher.partial_hits            0                       # number of misses observed for a block being prefetched
system.ruby.l1_cntrl1.prefetcher.pages_crossed            0                       # number of prefetches across pages
system.ruby.l1_cntrl1.prefetcher.misses_on_prefetched_blocks            0                       # number of misses for blocks that were prefetched, yet missed
system.ruby.l1_cntrl2.L1Dcache.demand_hits     67289040                       # Number of cache demand hits
system.ruby.l1_cntrl2.L1Dcache.demand_misses      1352605                       # Number of cache demand misses
system.ruby.l1_cntrl2.L1Dcache.demand_accesses     68641645                       # Number of cache demand accesses
system.ruby.l1_cntrl2.L1Icache.demand_hits    175367898                       # Number of cache demand hits
system.ruby.l1_cntrl2.L1Icache.demand_misses          491                       # Number of cache demand misses
system.ruby.l1_cntrl2.L1Icache.demand_accesses    175368389                       # Number of cache demand accesses
system.ruby.l1_cntrl2.prefetcher.miss_observed            0                       # number of misses observed
system.ruby.l1_cntrl2.prefetcher.allocated_streams            0                       # number of streams allocated for prefetching
system.ruby.l1_cntrl2.prefetcher.prefetches_requested            0                       # number of prefetch requests made
system.ruby.l1_cntrl2.prefetcher.prefetches_accepted            0                       # number of prefetch requests accepted
system.ruby.l1_cntrl2.prefetcher.dropped_prefetches            0                       # number of prefetch requests dropped
system.ruby.l1_cntrl2.prefetcher.hits               0                       # number of prefetched blocks accessed
system.ruby.l1_cntrl2.prefetcher.partial_hits            0                       # number of misses observed for a block being prefetched
system.ruby.l1_cntrl2.prefetcher.pages_crossed            0                       # number of prefetches across pages
system.ruby.l1_cntrl2.prefetcher.misses_on_prefetched_blocks            0                       # number of misses for blocks that were prefetched, yet missed
system.ruby.l1_cntrl3.L1Dcache.demand_hits     66953350                       # Number of cache demand hits
system.ruby.l1_cntrl3.L1Dcache.demand_misses      1404280                       # Number of cache demand misses
system.ruby.l1_cntrl3.L1Dcache.demand_accesses     68357630                       # Number of cache demand accesses
system.ruby.l1_cntrl3.L1Icache.demand_hits    175757935                       # Number of cache demand hits
system.ruby.l1_cntrl3.L1Icache.demand_misses          477                       # Number of cache demand misses
system.ruby.l1_cntrl3.L1Icache.demand_accesses    175758412                       # Number of cache demand accesses
system.ruby.l1_cntrl3.prefetcher.miss_observed            0                       # number of misses observed
system.ruby.l1_cntrl3.prefetcher.allocated_streams            0                       # number of streams allocated for prefetching
system.ruby.l1_cntrl3.prefetcher.prefetches_requested            0                       # number of prefetch requests made
system.ruby.l1_cntrl3.prefetcher.prefetches_accepted            0                       # number of prefetch requests accepted
system.ruby.l1_cntrl3.prefetcher.dropped_prefetches            0                       # number of prefetch requests dropped
system.ruby.l1_cntrl3.prefetcher.hits               0                       # number of prefetched blocks accessed
system.ruby.l1_cntrl3.prefetcher.partial_hits            0                       # number of misses observed for a block being prefetched
system.ruby.l1_cntrl3.prefetcher.pages_crossed            0                       # number of prefetches across pages
system.ruby.l1_cntrl3.prefetcher.misses_on_prefetched_blocks            0                       # number of misses for blocks that were prefetched, yet missed
system.ruby.l2_cntrl1.L2cache.demand_hits      1579916                       # Number of cache demand hits
system.ruby.l2_cntrl1.L2cache.demand_misses        17611                       # Number of cache demand misses
system.ruby.l2_cntrl1.L2cache.demand_accesses      1597527                       # Number of cache demand accesses
system.ruby.l2_cntrl0.L2cache.demand_hits      1957472                       # Number of cache demand hits
system.ruby.l2_cntrl0.L2cache.demand_misses        33187                       # Number of cache demand misses
system.ruby.l2_cntrl0.L2cache.demand_accesses      1990659                       # Number of cache demand accesses
system.ruby.l2_cntrl3.L2cache.demand_hits      1603281                       # Number of cache demand hits
system.ruby.l2_cntrl3.L2cache.demand_misses        15873                       # Number of cache demand misses
system.ruby.l2_cntrl3.L2cache.demand_accesses      1619154                       # Number of cache demand accesses
system.ruby.l2_cntrl2.L2cache.demand_hits      1756744                       # Number of cache demand hits
system.ruby.l2_cntrl2.L2cache.demand_misses        14804                       # Number of cache demand misses
system.ruby.l2_cntrl2.L2cache.demand_accesses      1771548                       # Number of cache demand accesses
system.ruby.l1_cntrl8.L1Dcache.demand_hits     69881037                       # Number of cache demand hits
system.ruby.l1_cntrl8.L1Dcache.demand_misses       933071                       # Number of cache demand misses
system.ruby.l1_cntrl8.L1Dcache.demand_accesses     70814108                       # Number of cache demand accesses
system.ruby.l1_cntrl8.L1Icache.demand_hits    176658196                       # Number of cache demand hits
system.ruby.l1_cntrl8.L1Icache.demand_misses          506                       # Number of cache demand misses
system.ruby.l1_cntrl8.L1Icache.demand_accesses    176658702                       # Number of cache demand accesses
system.ruby.l1_cntrl8.prefetcher.miss_observed            0                       # number of misses observed
system.ruby.l1_cntrl8.prefetcher.allocated_streams            0                       # number of streams allocated for prefetching
system.ruby.l1_cntrl8.prefetcher.prefetches_requested            0                       # number of prefetch requests made
system.ruby.l1_cntrl8.prefetcher.prefetches_accepted            0                       # number of prefetch requests accepted
system.ruby.l1_cntrl8.prefetcher.dropped_prefetches            0                       # number of prefetch requests dropped
system.ruby.l1_cntrl8.prefetcher.hits               0                       # number of prefetched blocks accessed
system.ruby.l1_cntrl8.prefetcher.partial_hits            0                       # number of misses observed for a block being prefetched
system.ruby.l1_cntrl8.prefetcher.pages_crossed            0                       # number of prefetches across pages
system.ruby.l1_cntrl8.prefetcher.misses_on_prefetched_blocks            0                       # number of misses for blocks that were prefetched, yet missed
system.ruby.l1_cntrl9.L1Dcache.demand_hits     68373805                       # Number of cache demand hits
system.ruby.l1_cntrl9.L1Dcache.demand_misses      1166827                       # Number of cache demand misses
system.ruby.l1_cntrl9.L1Dcache.demand_accesses     69540632                       # Number of cache demand accesses
system.ruby.l1_cntrl9.L1Icache.demand_hits    176210820                       # Number of cache demand hits
system.ruby.l1_cntrl9.L1Icache.demand_misses          500                       # Number of cache demand misses
system.ruby.l1_cntrl9.L1Icache.demand_accesses    176211320                       # Number of cache demand accesses
system.ruby.l1_cntrl9.prefetcher.miss_observed            0                       # number of misses observed
system.ruby.l1_cntrl9.prefetcher.allocated_streams            0                       # number of streams allocated for prefetching
system.ruby.l1_cntrl9.prefetcher.prefetches_requested            0                       # number of prefetch requests made
system.ruby.l1_cntrl9.prefetcher.prefetches_accepted            0                       # number of prefetch requests accepted
system.ruby.l1_cntrl9.prefetcher.dropped_prefetches            0                       # number of prefetch requests dropped
system.ruby.l1_cntrl9.prefetcher.hits               0                       # number of prefetched blocks accessed
system.ruby.l1_cntrl9.prefetcher.partial_hits            0                       # number of misses observed for a block being prefetched
system.ruby.l1_cntrl9.prefetcher.pages_crossed            0                       # number of prefetches across pages
system.ruby.l1_cntrl9.prefetcher.misses_on_prefetched_blocks            0                       # number of misses for blocks that were prefetched, yet missed
system.ruby.l2_cntrl7.L2cache.demand_hits       654473                       # Number of cache demand hits
system.ruby.l2_cntrl7.L2cache.demand_misses        11862                       # Number of cache demand misses
system.ruby.l2_cntrl7.L2cache.demand_accesses       666335                       # Number of cache demand accesses
system.ruby.l2_cntrl6.L2cache.demand_hits      1564706                       # Number of cache demand hits
system.ruby.l2_cntrl6.L2cache.demand_misses        14804                       # Number of cache demand misses
system.ruby.l2_cntrl6.L2cache.demand_accesses      1579510                       # Number of cache demand accesses
system.ruby.l1_cntrl14.L1Dcache.demand_hits     67854926                       # Number of cache demand hits
system.ruby.l1_cntrl14.L1Dcache.demand_misses      1085149                       # Number of cache demand misses
system.ruby.l1_cntrl14.L1Dcache.demand_accesses     68940075                       # Number of cache demand accesses
system.ruby.l1_cntrl14.L1Icache.demand_hits    174012142                       # Number of cache demand hits
system.ruby.l1_cntrl14.L1Icache.demand_misses          511                       # Number of cache demand misses
system.ruby.l1_cntrl14.L1Icache.demand_accesses    174012653                       # Number of cache demand accesses
system.ruby.l1_cntrl14.prefetcher.miss_observed            0                       # number of misses observed
system.ruby.l1_cntrl14.prefetcher.allocated_streams            0                       # number of streams allocated for prefetching
system.ruby.l1_cntrl14.prefetcher.prefetches_requested            0                       # number of prefetch requests made
system.ruby.l1_cntrl14.prefetcher.prefetches_accepted            0                       # number of prefetch requests accepted
system.ruby.l1_cntrl14.prefetcher.dropped_prefetches            0                       # number of prefetch requests dropped
system.ruby.l1_cntrl14.prefetcher.hits              0                       # number of prefetched blocks accessed
system.ruby.l1_cntrl14.prefetcher.partial_hits            0                       # number of misses observed for a block being prefetched
system.ruby.l1_cntrl14.prefetcher.pages_crossed            0                       # number of prefetches across pages
system.ruby.l1_cntrl14.prefetcher.misses_on_prefetched_blocks            0                       # number of misses for blocks that were prefetched, yet missed
system.ruby.l1_cntrl15.L1Dcache.demand_hits     67835141                       # Number of cache demand hits
system.ruby.l1_cntrl15.L1Dcache.demand_misses      1023551                       # Number of cache demand misses
system.ruby.l1_cntrl15.L1Dcache.demand_accesses     68858692                       # Number of cache demand accesses
system.ruby.l1_cntrl15.L1Icache.demand_hits    173440386                       # Number of cache demand hits
system.ruby.l1_cntrl15.L1Icache.demand_misses          514                       # Number of cache demand misses
system.ruby.l1_cntrl15.L1Icache.demand_accesses    173440900                       # Number of cache demand accesses
system.ruby.l1_cntrl15.prefetcher.miss_observed            0                       # number of misses observed
system.ruby.l1_cntrl15.prefetcher.allocated_streams            0                       # number of streams allocated for prefetching
system.ruby.l1_cntrl15.prefetcher.prefetches_requested            0                       # number of prefetch requests made
system.ruby.l1_cntrl15.prefetcher.prefetches_accepted            0                       # number of prefetch requests accepted
system.ruby.l1_cntrl15.prefetcher.dropped_prefetches            0                       # number of prefetch requests dropped
system.ruby.l1_cntrl15.prefetcher.hits              0                       # number of prefetched blocks accessed
system.ruby.l1_cntrl15.prefetcher.partial_hits            0                       # number of misses observed for a block being prefetched
system.ruby.l1_cntrl15.prefetcher.pages_crossed            0                       # number of prefetches across pages
system.ruby.l1_cntrl15.prefetcher.misses_on_prefetched_blocks            0                       # number of misses for blocks that were prefetched, yet missed
system.ruby.l1_cntrl12.L1Dcache.demand_hits     65601101                       # Number of cache demand hits
system.ruby.l1_cntrl12.L1Dcache.demand_misses      1513897                       # Number of cache demand misses
system.ruby.l1_cntrl12.L1Dcache.demand_accesses     67114998                       # Number of cache demand accesses
system.ruby.l1_cntrl12.L1Icache.demand_hits    174246776                       # Number of cache demand hits
system.ruby.l1_cntrl12.L1Icache.demand_misses          540                       # Number of cache demand misses
system.ruby.l1_cntrl12.L1Icache.demand_accesses    174247316                       # Number of cache demand accesses
system.ruby.l1_cntrl12.prefetcher.miss_observed            0                       # number of misses observed
system.ruby.l1_cntrl12.prefetcher.allocated_streams            0                       # number of streams allocated for prefetching
system.ruby.l1_cntrl12.prefetcher.prefetches_requested            0                       # number of prefetch requests made
system.ruby.l1_cntrl12.prefetcher.prefetches_accepted            0                       # number of prefetch requests accepted
system.ruby.l1_cntrl12.prefetcher.dropped_prefetches            0                       # number of prefetch requests dropped
system.ruby.l1_cntrl12.prefetcher.hits              0                       # number of prefetched blocks accessed
system.ruby.l1_cntrl12.prefetcher.partial_hits            0                       # number of misses observed for a block being prefetched
system.ruby.l1_cntrl12.prefetcher.pages_crossed            0                       # number of prefetches across pages
system.ruby.l1_cntrl12.prefetcher.misses_on_prefetched_blocks            0                       # number of misses for blocks that were prefetched, yet missed
system.ruby.l1_cntrl13.L1Dcache.demand_hits     65770946                       # Number of cache demand hits
system.ruby.l1_cntrl13.L1Dcache.demand_misses      1441075                       # Number of cache demand misses
system.ruby.l1_cntrl13.L1Dcache.demand_accesses     67212021                       # Number of cache demand accesses
system.ruby.l1_cntrl13.L1Icache.demand_hits    173806691                       # Number of cache demand hits
system.ruby.l1_cntrl13.L1Icache.demand_misses          494                       # Number of cache demand misses
system.ruby.l1_cntrl13.L1Icache.demand_accesses    173807185                       # Number of cache demand accesses
system.ruby.l1_cntrl13.prefetcher.miss_observed            0                       # number of misses observed
system.ruby.l1_cntrl13.prefetcher.allocated_streams            0                       # number of streams allocated for prefetching
system.ruby.l1_cntrl13.prefetcher.prefetches_requested            0                       # number of prefetch requests made
system.ruby.l1_cntrl13.prefetcher.prefetches_accepted            0                       # number of prefetch requests accepted
system.ruby.l1_cntrl13.prefetcher.dropped_prefetches            0                       # number of prefetch requests dropped
system.ruby.l1_cntrl13.prefetcher.hits              0                       # number of prefetched blocks accessed
system.ruby.l1_cntrl13.prefetcher.partial_hits            0                       # number of misses observed for a block being prefetched
system.ruby.l1_cntrl13.prefetcher.pages_crossed            0                       # number of prefetches across pages
system.ruby.l1_cntrl13.prefetcher.misses_on_prefetched_blocks            0                       # number of misses for blocks that were prefetched, yet missed
system.ruby.l1_cntrl10.L1Dcache.demand_hits     66619123                       # Number of cache demand hits
system.ruby.l1_cntrl10.L1Dcache.demand_misses      1444249                       # Number of cache demand misses
system.ruby.l1_cntrl10.L1Dcache.demand_accesses     68063372                       # Number of cache demand accesses
system.ruby.l1_cntrl10.L1Icache.demand_hits    175410931                       # Number of cache demand hits
system.ruby.l1_cntrl10.L1Icache.demand_misses          528                       # Number of cache demand misses
system.ruby.l1_cntrl10.L1Icache.demand_accesses    175411459                       # Number of cache demand accesses
system.ruby.l1_cntrl10.prefetcher.miss_observed            0                       # number of misses observed
system.ruby.l1_cntrl10.prefetcher.allocated_streams            0                       # number of streams allocated for prefetching
system.ruby.l1_cntrl10.prefetcher.prefetches_requested            0                       # number of prefetch requests made
system.ruby.l1_cntrl10.prefetcher.prefetches_accepted            0                       # number of prefetch requests accepted
system.ruby.l1_cntrl10.prefetcher.dropped_prefetches            0                       # number of prefetch requests dropped
system.ruby.l1_cntrl10.prefetcher.hits              0                       # number of prefetched blocks accessed
system.ruby.l1_cntrl10.prefetcher.partial_hits            0                       # number of misses observed for a block being prefetched
system.ruby.l1_cntrl10.prefetcher.pages_crossed            0                       # number of prefetches across pages
system.ruby.l1_cntrl10.prefetcher.misses_on_prefetched_blocks            0                       # number of misses for blocks that were prefetched, yet missed
system.ruby.l1_cntrl11.L1Dcache.demand_hits     66370115                       # Number of cache demand hits
system.ruby.l1_cntrl11.L1Dcache.demand_misses      1457745                       # Number of cache demand misses
system.ruby.l1_cntrl11.L1Dcache.demand_accesses     67827860                       # Number of cache demand accesses
system.ruby.l1_cntrl11.L1Icache.demand_hits    174903995                       # Number of cache demand hits
system.ruby.l1_cntrl11.L1Icache.demand_misses          527                       # Number of cache demand misses
system.ruby.l1_cntrl11.L1Icache.demand_accesses    174904522                       # Number of cache demand accesses
system.ruby.l1_cntrl11.prefetcher.miss_observed            0                       # number of misses observed
system.ruby.l1_cntrl11.prefetcher.allocated_streams            0                       # number of streams allocated for prefetching
system.ruby.l1_cntrl11.prefetcher.prefetches_requested            0                       # number of prefetch requests made
system.ruby.l1_cntrl11.prefetcher.prefetches_accepted            0                       # number of prefetch requests accepted
system.ruby.l1_cntrl11.prefetcher.dropped_prefetches            0                       # number of prefetch requests dropped
system.ruby.l1_cntrl11.prefetcher.hits              0                       # number of prefetched blocks accessed
system.ruby.l1_cntrl11.prefetcher.partial_hits            0                       # number of misses observed for a block being prefetched
system.ruby.l1_cntrl11.prefetcher.pages_crossed            0                       # number of prefetches across pages
system.ruby.l1_cntrl11.prefetcher.misses_on_prefetched_blocks            0                       # number of misses for blocks that were prefetched, yet missed
system.ruby.l2_cntrl9.L2cache.demand_hits      1055008                       # Number of cache demand hits
system.ruby.l2_cntrl9.L2cache.demand_misses        10845                       # Number of cache demand misses
system.ruby.l2_cntrl9.L2cache.demand_accesses      1065853                       # Number of cache demand accesses
system.ruby.l2_cntrl8.L2cache.demand_hits      1510632                       # Number of cache demand hits
system.ruby.l2_cntrl8.L2cache.demand_misses        14434                       # Number of cache demand misses
system.ruby.l2_cntrl8.L2cache.demand_accesses      1525066                       # Number of cache demand accesses
system.ruby.dir_cntrl0.memBuffer.memReq          7107                       # Total number of memory requests
system.ruby.dir_cntrl0.memBuffer.memRead         5652                       # Number of memory reads
system.ruby.dir_cntrl0.memBuffer.memWrite         1455                       # Number of memory writes
system.ruby.dir_cntrl0.memBuffer.memRefresh       102663                       # Number of memory refreshes
system.ruby.dir_cntrl0.memBuffer.memWaitCycles        13659                       # Delay stalled at the head of the bank queue
system.ruby.dir_cntrl0.memBuffer.memInputQ           18                       # Delay in the input queue
system.ruby.dir_cntrl0.memBuffer.memBankQ          343                       # Delay behind the head of the bank queue
system.ruby.dir_cntrl0.memBuffer.totalStalls        14020                       # Total number of stall cycles
system.ruby.dir_cntrl0.memBuffer.stallsPerReq     1.972703                       # Expected number of stall cycles per request
system.ruby.dir_cntrl0.memBuffer.memBankBusy        13211                       # memory stalls due to busy bank
system.ruby.dir_cntrl0.memBuffer.memBusBusy          397                       # memory stalls due to busy bus
system.ruby.dir_cntrl0.memBuffer.memReadWriteBusy            2                       # memory stalls due to read write turnaround
system.ruby.dir_cntrl0.memBuffer.memDataBusBusy            1                       # memory stalls due to read read turnaround
system.ruby.dir_cntrl0.memBuffer.memArbWait           48                       # memory stalls due to arbitration
system.ruby.dir_cntrl0.memBuffer.memBankCount |         730     10.27%     10.27% |           0      0.00%     10.27% |           0      0.00%     10.27% |           0      0.00%     10.27% |         639      8.99%     19.26% |           0      0.00%     19.26% |           0      0.00%     19.26% |           0      0.00%     19.26% |         606      8.53%     27.79% |           0      0.00%     27.79% |           0      0.00%     27.79% |           0      0.00%     27.79% |         542      7.63%     35.42% |           0      0.00%     35.42% |           0      0.00%     35.42% |           0      0.00%     35.42% |        1343     18.90%     54.31% |           0      0.00%     54.31% |           0      0.00%     54.31% |           0      0.00%     54.31% |        1700     23.92%     78.23% |           0      0.00%     78.23% |           0      0.00%     78.23% |           0      0.00%     78.23% |         867     12.20%     90.43% |           0      0.00%     90.43% |           0      0.00%     90.43% |           0      0.00%     90.43% |         680      9.57%    100.00% |           0      0.00%    100.00% |           0      0.00%    100.00% |           0      0.00%    100.00% # Number of accesses per bank
system.ruby.dir_cntrl0.memBuffer.memBankCount::total         7107                       # Number of accesses per bank

system.ruby.dir_cntrl1.memBuffer.memReq          6507                       # Total number of memory requests
system.ruby.dir_cntrl1.memBuffer.memRead         5186                       # Number of memory reads
system.ruby.dir_cntrl1.memBuffer.memWrite         1321                       # Number of memory writes
system.ruby.dir_cntrl1.memBuffer.memRefresh        97593                       # Number of memory refreshes
system.ruby.dir_cntrl1.memBuffer.memWaitCycles        12592                       # Delay stalled at the head of the bank queue
system.ruby.dir_cntrl1.memBuffer.memInputQ           22                       # Delay in the input queue
system.ruby.dir_cntrl1.memBuffer.memBankQ          228                       # Delay behind the head of the bank queue
system.ruby.dir_cntrl1.memBuffer.totalStalls        12842                       # Total number of stall cycles
system.ruby.dir_cntrl1.memBuffer.stallsPerReq     1.973567                       # Expected number of stall cycles per request
system.ruby.dir_cntrl1.memBuffer.memBankBusy        12181                       # memory stalls due to busy bank
system.ruby.dir_cntrl1.memBuffer.memBusBusy          365                       # memory stalls due to busy bus
system.ruby.dir_cntrl1.memBuffer.memReadWriteBusy            1                       # memory stalls due to read write turnaround
system.ruby.dir_cntrl1.memBuffer.memDataBusBusy            2                       # memory stalls due to read read turnaround
system.ruby.dir_cntrl1.memBuffer.memArbWait           43                       # memory stalls due to arbitration
system.ruby.dir_cntrl1.memBuffer.memBankCount |         682     10.48%     10.48% |           0      0.00%     10.48% |           0      0.00%     10.48% |           0      0.00%     10.48% |         604      9.28%     19.76% |           0      0.00%     19.76% |           0      0.00%     19.76% |           0      0.00%     19.76% |         581      8.93%     28.69% |           0      0.00%     28.69% |           0      0.00%     28.69% |           0      0.00%     28.69% |         568      8.73%     37.42% |           0      0.00%     37.42% |           0      0.00%     37.42% |           0      0.00%     37.42% |        1290     19.82%     57.25% |           0      0.00%     57.25% |           0      0.00%     57.25% |           0      0.00%     57.25% |        1337     20.55%     77.79% |           0      0.00%     77.79% |           0      0.00%     77.79% |           0      0.00%     77.79% |         771     11.85%     89.64% |           0      0.00%     89.64% |           0      0.00%     89.64% |           0      0.00%     89.64% |         674     10.36%    100.00% |           0      0.00%    100.00% |           0      0.00%    100.00% |           0      0.00%    100.00% # Number of accesses per bank
system.ruby.dir_cntrl1.memBuffer.memBankCount::total         6507                       # Number of accesses per bank

system.ruby.dir_cntrl2.memBuffer.memReq          6782                       # Total number of memory requests
system.ruby.dir_cntrl2.memBuffer.memRead         5456                       # Number of memory reads
system.ruby.dir_cntrl2.memBuffer.memWrite         1326                       # Number of memory writes
system.ruby.dir_cntrl2.memBuffer.memRefresh        99742                       # Number of memory refreshes
system.ruby.dir_cntrl2.memBuffer.memWaitCycles        12281                       # Delay stalled at the head of the bank queue
system.ruby.dir_cntrl2.memBuffer.memInputQ           17                       # Delay in the input queue
system.ruby.dir_cntrl2.memBuffer.memBankQ          116                       # Delay behind the head of the bank queue
system.ruby.dir_cntrl2.memBuffer.totalStalls        12414                       # Total number of stall cycles
system.ruby.dir_cntrl2.memBuffer.stallsPerReq     1.830434                       # Expected number of stall cycles per request
system.ruby.dir_cntrl2.memBuffer.memBankBusy        11841                       # memory stalls due to busy bank
system.ruby.dir_cntrl2.memBuffer.memBusBusy          383                       # memory stalls due to busy bus
system.ruby.dir_cntrl2.memBuffer.memReadWriteBusy            2                       # memory stalls due to read write turnaround
system.ruby.dir_cntrl2.memBuffer.memDataBusBusy            2                       # memory stalls due to read read turnaround
system.ruby.dir_cntrl2.memBuffer.memArbWait           53                       # memory stalls due to arbitration
system.ruby.dir_cntrl2.memBuffer.memBankCount |         682     10.06%     10.06% |           0      0.00%     10.06% |           0      0.00%     10.06% |           0      0.00%     10.06% |         632      9.32%     19.37% |           0      0.00%     19.37% |           0      0.00%     19.37% |           0      0.00%     19.37% |         606      8.94%     28.31% |           0      0.00%     28.31% |           0      0.00%     28.31% |           0      0.00%     28.31% |         583      8.60%     36.91% |           0      0.00%     36.91% |           0      0.00%     36.91% |           0      0.00%     36.91% |        1249     18.42%     55.32% |           0      0.00%     55.32% |           0      0.00%     55.32% |           0      0.00%     55.32% |        1609     23.72%     79.05% |           0      0.00%     79.05% |           0      0.00%     79.05% |           0      0.00%     79.05% |         771     11.37%     90.42% |           0      0.00%     90.42% |           0      0.00%     90.42% |           0      0.00%     90.42% |         650      9.58%    100.00% |           0      0.00%    100.00% |           0      0.00%    100.00% |           0      0.00%    100.00% # Number of accesses per bank
system.ruby.dir_cntrl2.memBuffer.memBankCount::total         6782                       # Number of accesses per bank

system.ruby.dir_cntrl3.memBuffer.memReq          6425                       # Total number of memory requests
system.ruby.dir_cntrl3.memBuffer.memRead         5151                       # Number of memory reads
system.ruby.dir_cntrl3.memBuffer.memWrite         1274                       # Number of memory writes
system.ruby.dir_cntrl3.memBuffer.memRefresh        97334                       # Number of memory refreshes
system.ruby.dir_cntrl3.memBuffer.memWaitCycles        12209                       # Delay stalled at the head of the bank queue
system.ruby.dir_cntrl3.memBuffer.memInputQ           16                       # Delay in the input queue
system.ruby.dir_cntrl3.memBuffer.memBankQ          121                       # Delay behind the head of the bank queue
system.ruby.dir_cntrl3.memBuffer.totalStalls        12346                       # Total number of stall cycles
system.ruby.dir_cntrl3.memBuffer.stallsPerReq     1.921556                       # Expected number of stall cycles per request
system.ruby.dir_cntrl3.memBuffer.memBankBusy        11807                       # memory stalls due to busy bank
system.ruby.dir_cntrl3.memBuffer.memBusBusy          354                       # memory stalls due to busy bus
system.ruby.dir_cntrl3.memBuffer.memDataBusBusy            1                       # memory stalls due to read read turnaround
system.ruby.dir_cntrl3.memBuffer.memArbWait           47                       # memory stalls due to arbitration
system.ruby.dir_cntrl3.memBuffer.memBankCount |         609      9.48%      9.48% |           0      0.00%      9.48% |           0      0.00%      9.48% |           0      0.00%      9.48% |         583      9.07%     18.55% |           0      0.00%     18.55% |           0      0.00%     18.55% |           0      0.00%     18.55% |         599      9.32%     27.88% |           0      0.00%     27.88% |           0      0.00%     27.88% |           0      0.00%     27.88% |         572      8.90%     36.78% |           0      0.00%     36.78% |           0      0.00%     36.78% |           0      0.00%     36.78% |        1286     20.02%     56.79% |           0      0.00%     56.79% |           0      0.00%     56.79% |           0      0.00%     56.79% |        1409     21.93%     78.72% |           0      0.00%     78.72% |           0      0.00%     78.72% |           0      0.00%     78.72% |         746     11.61%     90.33% |           0      0.00%     90.33% |           0      0.00%     90.33% |           0      0.00%     90.33% |         621      9.67%    100.00% |           0      0.00%    100.00% |           0      0.00%    100.00% |           0      0.00%    100.00% # Number of accesses per bank
system.ruby.dir_cntrl3.memBuffer.memBankCount::total         6425                       # Number of accesses per bank

system.ruby.dir_cntrl4.memBuffer.memReq          6732                       # Total number of memory requests
system.ruby.dir_cntrl4.memBuffer.memRead         5398                       # Number of memory reads
system.ruby.dir_cntrl4.memBuffer.memWrite         1334                       # Number of memory writes
system.ruby.dir_cntrl4.memBuffer.memRefresh        99539                       # Number of memory refreshes
system.ruby.dir_cntrl4.memBuffer.memWaitCycles        12569                       # Delay stalled at the head of the bank queue
system.ruby.dir_cntrl4.memBuffer.memInputQ           16                       # Delay in the input queue
system.ruby.dir_cntrl4.memBuffer.memBankQ          133                       # Delay behind the head of the bank queue
system.ruby.dir_cntrl4.memBuffer.totalStalls        12718                       # Total number of stall cycles
system.ruby.dir_cntrl4.memBuffer.stallsPerReq     1.889186                       # Expected number of stall cycles per request
system.ruby.dir_cntrl4.memBuffer.memBankBusy        12140                       # memory stalls due to busy bank
system.ruby.dir_cntrl4.memBuffer.memBusBusy          377                       # memory stalls due to busy bus
system.ruby.dir_cntrl4.memBuffer.memReadWriteBusy            1                       # memory stalls due to read write turnaround
system.ruby.dir_cntrl4.memBuffer.memDataBusBusy            3                       # memory stalls due to read read turnaround
system.ruby.dir_cntrl4.memBuffer.memArbWait           48                       # memory stalls due to arbitration
system.ruby.dir_cntrl4.memBuffer.memBankCount |           0      0.00%      0.00% |         623      9.25%      9.25% |           0      0.00%      9.25% |           0      0.00%      9.25% |           0      0.00%      9.25% |         618      9.18%     18.43% |           0      0.00%     18.43% |           0      0.00%     18.43% |           0      0.00%     18.43% |         587      8.72%     27.15% |           0      0.00%     27.15% |           0      0.00%     27.15% |           0      0.00%     27.15% |         573      8.51%     35.67% |           0      0.00%     35.67% |           0      0.00%     35.67% |           0      0.00%     35.67% |        1380     20.50%     56.16% |           0      0.00%     56.16% |           0      0.00%     56.16% |           0      0.00%     56.16% |        1525     22.65%     78.82% |           0      0.00%     78.82% |           0      0.00%     78.82% |           0      0.00%     78.82% |         778     11.56%     90.37% |           0      0.00%     90.37% |           0      0.00%     90.37% |           0      0.00%     90.37% |         648      9.63%    100.00% |           0      0.00%    100.00% |           0      0.00%    100.00% # Number of accesses per bank
system.ruby.dir_cntrl4.memBuffer.memBankCount::total         6732                       # Number of accesses per bank

system.ruby.dir_cntrl5.memBuffer.memReq          6507                       # Total number of memory requests
system.ruby.dir_cntrl5.memBuffer.memRead         5193                       # Number of memory reads
system.ruby.dir_cntrl5.memBuffer.memWrite         1314                       # Number of memory writes
system.ruby.dir_cntrl5.memBuffer.memRefresh        97577                       # Number of memory refreshes
system.ruby.dir_cntrl5.memBuffer.memWaitCycles        12297                       # Delay stalled at the head of the bank queue
system.ruby.dir_cntrl5.memBuffer.memInputQ           15                       # Delay in the input queue
system.ruby.dir_cntrl5.memBuffer.memBankQ          118                       # Delay behind the head of the bank queue
system.ruby.dir_cntrl5.memBuffer.totalStalls        12430                       # Total number of stall cycles
system.ruby.dir_cntrl5.memBuffer.stallsPerReq     1.910250                       # Expected number of stall cycles per request
system.ruby.dir_cntrl5.memBuffer.memBankBusy        11874                       # memory stalls due to busy bank
system.ruby.dir_cntrl5.memBuffer.memBusBusy          370                       # memory stalls due to busy bus
system.ruby.dir_cntrl5.memBuffer.memDataBusBusy            2                       # memory stalls due to read read turnaround
system.ruby.dir_cntrl5.memBuffer.memArbWait           51                       # memory stalls due to arbitration
system.ruby.dir_cntrl5.memBuffer.memBankCount |           0      0.00%      0.00% |         609      9.36%      9.36% |           0      0.00%      9.36% |           0      0.00%      9.36% |           0      0.00%      9.36% |         608      9.34%     18.70% |           0      0.00%     18.70% |           0      0.00%     18.70% |           0      0.00%     18.70% |         592      9.10%     27.80% |           0      0.00%     27.80% |           0      0.00%     27.80% |           0      0.00%     27.80% |         537      8.25%     36.05% |           0      0.00%     36.05% |           0      0.00%     36.05% |           0      0.00%     36.05% |        1191     18.30%     54.36% |           0      0.00%     54.36% |           0      0.00%     54.36% |           0      0.00%     54.36% |        1577     24.24%     78.59% |           0      0.00%     78.59% |           0      0.00%     78.59% |           0      0.00%     78.59% |         769     11.82%     90.41% |           0      0.00%     90.41% |           0      0.00%     90.41% |           0      0.00%     90.41% |         624      9.59%    100.00% |           0      0.00%    100.00% |           0      0.00%    100.00% # Number of accesses per bank
system.ruby.dir_cntrl5.memBuffer.memBankCount::total         6507                       # Number of accesses per bank

system.ruby.dir_cntrl6.memBuffer.memReq          6882                       # Total number of memory requests
system.ruby.dir_cntrl6.memBuffer.memRead         5501                       # Number of memory reads
system.ruby.dir_cntrl6.memBuffer.memWrite         1381                       # Number of memory writes
system.ruby.dir_cntrl6.memBuffer.memRefresh       101199                       # Number of memory refreshes
system.ruby.dir_cntrl6.memBuffer.memWaitCycles        13341                       # Delay stalled at the head of the bank queue
system.ruby.dir_cntrl6.memBuffer.memInputQ           21                       # Delay in the input queue
system.ruby.dir_cntrl6.memBuffer.memBankQ          150                       # Delay behind the head of the bank queue
system.ruby.dir_cntrl6.memBuffer.totalStalls        13512                       # Total number of stall cycles
system.ruby.dir_cntrl6.memBuffer.stallsPerReq     1.963383                       # Expected number of stall cycles per request
system.ruby.dir_cntrl6.memBuffer.memBankBusy        12883                       # memory stalls due to busy bank
system.ruby.dir_cntrl6.memBuffer.memBusBusy          390                       # memory stalls due to busy bus
system.ruby.dir_cntrl6.memBuffer.memReadWriteBusy            2                       # memory stalls due to read write turnaround
system.ruby.dir_cntrl6.memBuffer.memDataBusBusy            4                       # memory stalls due to read read turnaround
system.ruby.dir_cntrl6.memBuffer.memArbWait           62                       # memory stalls due to arbitration
system.ruby.dir_cntrl6.memBuffer.memBankCount |           0      0.00%      0.00% |         639      9.29%      9.29% |           0      0.00%      9.29% |           0      0.00%      9.29% |           0      0.00%      9.29% |         612      8.89%     18.18% |           0      0.00%     18.18% |           0      0.00%     18.18% |           0      0.00%     18.18% |         615      8.94%     27.11% |           0      0.00%     27.11% |           0      0.00%     27.11% |           0      0.00%     27.11% |         547      7.95%     35.06% |           0      0.00%     35.06% |           0      0.00%     35.06% |           0      0.00%     35.06% |        1219     17.71%     52.78% |           0      0.00%     52.78% |           0      0.00%     52.78% |           0      0.00%     52.78% |        1785     25.94%     78.71% |           0      0.00%     78.71% |           0      0.00%     78.71% |           0      0.00%     78.71% |         804     11.68%     90.40% |           0      0.00%     90.40% |           0      0.00%     90.40% |           0      0.00%     90.40% |         661      9.60%    100.00% |           0      0.00%    100.00% |           0      0.00%    100.00% # Number of accesses per bank
system.ruby.dir_cntrl6.memBuffer.memBankCount::total         6882                       # Number of accesses per bank

system.ruby.dir_cntrl7.memBuffer.memReq          6563                       # Total number of memory requests
system.ruby.dir_cntrl7.memBuffer.memRead         5201                       # Number of memory reads
system.ruby.dir_cntrl7.memBuffer.memWrite         1362                       # Number of memory writes
system.ruby.dir_cntrl7.memBuffer.memRefresh        98436                       # Number of memory refreshes
system.ruby.dir_cntrl7.memBuffer.memWaitCycles        12494                       # Delay stalled at the head of the bank queue
system.ruby.dir_cntrl7.memBuffer.memInputQ           10                       # Delay in the input queue
system.ruby.dir_cntrl7.memBuffer.memBankQ          111                       # Delay behind the head of the bank queue
system.ruby.dir_cntrl7.memBuffer.totalStalls        12615                       # Total number of stall cycles
system.ruby.dir_cntrl7.memBuffer.stallsPerReq     1.922139                       # Expected number of stall cycles per request
system.ruby.dir_cntrl7.memBuffer.memBankBusy        12062                       # memory stalls due to busy bank
system.ruby.dir_cntrl7.memBuffer.memBusBusy          382                       # memory stalls due to busy bus
system.ruby.dir_cntrl7.memBuffer.memDataBusBusy            3                       # memory stalls due to read read turnaround
system.ruby.dir_cntrl7.memBuffer.memArbWait           47                       # memory stalls due to arbitration
system.ruby.dir_cntrl7.memBuffer.memBankCount |           0      0.00%      0.00% |         628      9.57%      9.57% |           0      0.00%      9.57% |           0      0.00%      9.57% |           0      0.00%      9.57% |         605      9.22%     18.79% |           0      0.00%     18.79% |           0      0.00%     18.79% |           0      0.00%     18.79% |         603      9.19%     27.98% |           0      0.00%     27.98% |           0      0.00%     27.98% |           0      0.00%     27.98% |         543      8.27%     36.25% |           0      0.00%     36.25% |           0      0.00%     36.25% |           0      0.00%     36.25% |        1320     20.11%     56.36% |           0      0.00%     56.36% |           0      0.00%     56.36% |           0      0.00%     56.36% |        1525     23.24%     79.60% |           0      0.00%     79.60% |           0      0.00%     79.60% |           0      0.00%     79.60% |         727     11.08%     90.67% |           0      0.00%     90.67% |           0      0.00%     90.67% |           0      0.00%     90.67% |         612      9.33%    100.00% |           0      0.00%    100.00% |           0      0.00%    100.00% # Number of accesses per bank
system.ruby.dir_cntrl7.memBuffer.memBankCount::total         6563                       # Number of accesses per bank

system.ruby.dir_cntrl8.memBuffer.memReq          7128                       # Total number of memory requests
system.ruby.dir_cntrl8.memBuffer.memRead         5669                       # Number of memory reads
system.ruby.dir_cntrl8.memBuffer.memWrite         1459                       # Number of memory writes
system.ruby.dir_cntrl8.memBuffer.memRefresh       104159                       # Number of memory refreshes
system.ruby.dir_cntrl8.memBuffer.memWaitCycles        13890                       # Delay stalled at the head of the bank queue
system.ruby.dir_cntrl8.memBuffer.memInputQ           22                       # Delay in the input queue
system.ruby.dir_cntrl8.memBuffer.memBankQ          885                       # Delay behind the head of the bank queue
system.ruby.dir_cntrl8.memBuffer.totalStalls        14797                       # Total number of stall cycles
system.ruby.dir_cntrl8.memBuffer.stallsPerReq     2.075898                       # Expected number of stall cycles per request
system.ruby.dir_cntrl8.memBuffer.memBankBusy        13445                       # memory stalls due to busy bank
system.ruby.dir_cntrl8.memBuffer.memBusBusy          386                       # memory stalls due to busy bus
system.ruby.dir_cntrl8.memBuffer.memReadWriteBusy            2                       # memory stalls due to read write turnaround
system.ruby.dir_cntrl8.memBuffer.memDataBusBusy            4                       # memory stalls due to read read turnaround
system.ruby.dir_cntrl8.memBuffer.memArbWait           53                       # memory stalls due to arbitration
system.ruby.dir_cntrl8.memBuffer.memBankCount |           0      0.00%      0.00% |           0      0.00%      0.00% |         644      9.03%      9.03% |           0      0.00%      9.03% |           0      0.00%      9.03% |           0      0.00%      9.03% |         678      9.51%     18.55% |           0      0.00%     18.55% |           0      0.00%     18.55% |           0      0.00%     18.55% |         592      8.31%     26.85% |           0      0.00%     26.85% |           0      0.00%     26.85% |           0      0.00%     26.85% |         564      7.91%     34.76% |           0      0.00%     34.76% |           0      0.00%     34.76% |           0      0.00%     34.76% |        1499     21.03%     55.79% |           0      0.00%     55.79% |           0      0.00%     55.79% |           0      0.00%     55.79% |        1765     24.76%     80.56% |           0      0.00%     80.56% |           0      0.00%     80.56% |           0      0.00%     80.56% |         773     10.84%     91.40% |           0      0.00%     91.40% |           0      0.00%     91.40% |           0      0.00%     91.40% |         613      8.60%    100.00% |           0      0.00%    100.00% # Number of accesses per bank
system.ruby.dir_cntrl8.memBuffer.memBankCount::total         7128                       # Number of accesses per bank

system.ruby.dir_cntrl9.memBuffer.memReq          6437                       # Total number of memory requests
system.ruby.dir_cntrl9.memBuffer.memRead         5152                       # Number of memory reads
system.ruby.dir_cntrl9.memBuffer.memWrite         1285                       # Number of memory writes
system.ruby.dir_cntrl9.memBuffer.memRefresh        97094                       # Number of memory refreshes
system.ruby.dir_cntrl9.memBuffer.memWaitCycles        12220                       # Delay stalled at the head of the bank queue
system.ruby.dir_cntrl9.memBuffer.memInputQ           15                       # Delay in the input queue
system.ruby.dir_cntrl9.memBuffer.memBankQ          496                       # Delay behind the head of the bank queue
system.ruby.dir_cntrl9.memBuffer.totalStalls        12731                       # Total number of stall cycles
system.ruby.dir_cntrl9.memBuffer.stallsPerReq     1.977785                       # Expected number of stall cycles per request
system.ruby.dir_cntrl9.memBuffer.memBankBusy        11794                       # memory stalls due to busy bank
system.ruby.dir_cntrl9.memBuffer.memBusBusy          375                       # memory stalls due to busy bus
system.ruby.dir_cntrl9.memBuffer.memDataBusBusy            3                       # memory stalls due to read read turnaround
system.ruby.dir_cntrl9.memBuffer.memArbWait           48                       # memory stalls due to arbitration
system.ruby.dir_cntrl9.memBuffer.memBankCount |           0      0.00%      0.00% |           0      0.00%      0.00% |         604      9.38%      9.38% |           0      0.00%      9.38% |           0      0.00%      9.38% |           0      0.00%      9.38% |         613      9.52%     18.91% |           0      0.00%     18.91% |           0      0.00%     18.91% |           0      0.00%     18.91% |         591      9.18%     28.09% |           0      0.00%     28.09% |           0      0.00%     28.09% |           0      0.00%     28.09% |         549      8.53%     36.62% |           0      0.00%     36.62% |           0      0.00%     36.62% |           0      0.00%     36.62% |        1236     19.20%     55.82% |           0      0.00%     55.82% |           0      0.00%     55.82% |           0      0.00%     55.82% |        1484     23.05%     78.87% |           0      0.00%     78.87% |           0      0.00%     78.87% |           0      0.00%     78.87% |         731     11.36%     90.23% |           0      0.00%     90.23% |           0      0.00%     90.23% |           0      0.00%     90.23% |         629      9.77%    100.00% |           0      0.00%    100.00% # Number of accesses per bank
system.ruby.dir_cntrl9.memBuffer.memBankCount::total         6437                       # Number of accesses per bank

system.ruby.dir_cntrl10.memBuffer.memReq         7071                       # Total number of memory requests
system.ruby.dir_cntrl10.memBuffer.memRead         5625                       # Number of memory reads
system.ruby.dir_cntrl10.memBuffer.memWrite         1446                       # Number of memory writes
system.ruby.dir_cntrl10.memBuffer.memRefresh       102701                       # Number of memory refreshes
system.ruby.dir_cntrl10.memBuffer.memWaitCycles        13730                       # Delay stalled at the head of the bank queue
system.ruby.dir_cntrl10.memBuffer.memInputQ           30                       # Delay in the input queue
system.ruby.dir_cntrl10.memBuffer.memBankQ          761                       # Delay behind the head of the bank queue
system.ruby.dir_cntrl10.memBuffer.totalStalls        14521                       # Total number of stall cycles
system.ruby.dir_cntrl10.memBuffer.stallsPerReq     2.053599                       # Expected number of stall cycles per request
system.ruby.dir_cntrl10.memBuffer.memBankBusy        13263                       # memory stalls due to busy bank
system.ruby.dir_cntrl10.memBuffer.memBusBusy          398                       # memory stalls due to busy bus
system.ruby.dir_cntrl10.memBuffer.memDataBusBusy            6                       # memory stalls due to read read turnaround
system.ruby.dir_cntrl10.memBuffer.memArbWait           63                       # memory stalls due to arbitration
system.ruby.dir_cntrl10.memBuffer.memBankCount |           0      0.00%      0.00% |           0      0.00%      0.00% |         652      9.22%      9.22% |           0      0.00%      9.22% |           0      0.00%      9.22% |           0      0.00%      9.22% |         606      8.57%     17.79% |           0      0.00%     17.79% |           0      0.00%     17.79% |           0      0.00%     17.79% |         584      8.26%     26.05% |           0      0.00%     26.05% |           0      0.00%     26.05% |           0      0.00%     26.05% |         600      8.49%     34.54% |           0      0.00%     34.54% |           0      0.00%     34.54% |           0      0.00%     34.54% |        1492     21.10%     55.64% |           0      0.00%     55.64% |           0      0.00%     55.64% |           0      0.00%     55.64% |        1851     26.18%     81.81% |           0      0.00%     81.81% |           0      0.00%     81.81% |           0      0.00%     81.81% |         676      9.56%     91.37% |           0      0.00%     91.37% |           0      0.00%     91.37% |           0      0.00%     91.37% |         610      8.63%    100.00% |           0      0.00%    100.00% # Number of accesses per bank
system.ruby.dir_cntrl10.memBuffer.memBankCount::total         7071                       # Number of accesses per bank

system.ruby.dir_cntrl11.memBuffer.memReq         6285                       # Total number of memory requests
system.ruby.dir_cntrl11.memBuffer.memRead         5052                       # Number of memory reads
system.ruby.dir_cntrl11.memBuffer.memWrite         1233                       # Number of memory writes
system.ruby.dir_cntrl11.memBuffer.memRefresh        95123                       # Number of memory refreshes
system.ruby.dir_cntrl11.memBuffer.memWaitCycles        11830                       # Delay stalled at the head of the bank queue
system.ruby.dir_cntrl11.memBuffer.memInputQ           25                       # Delay in the input queue
system.ruby.dir_cntrl11.memBuffer.memBankQ         1277                       # Delay behind the head of the bank queue
system.ruby.dir_cntrl11.memBuffer.totalStalls        13132                       # Total number of stall cycles
system.ruby.dir_cntrl11.memBuffer.stallsPerReq     2.089419                       # Expected number of stall cycles per request
system.ruby.dir_cntrl11.memBuffer.memBankBusy        11407                       # memory stalls due to busy bank
system.ruby.dir_cntrl11.memBuffer.memBusBusy          372                       # memory stalls due to busy bus
system.ruby.dir_cntrl11.memBuffer.memReadWriteBusy            2                       # memory stalls due to read write turnaround
system.ruby.dir_cntrl11.memBuffer.memDataBusBusy            2                       # memory stalls due to read read turnaround
system.ruby.dir_cntrl11.memBuffer.memArbWait           47                       # memory stalls due to arbitration
system.ruby.dir_cntrl11.memBuffer.memBankCount |           0      0.00%      0.00% |           0      0.00%      0.00% |         606      9.64%      9.64% |           0      0.00%      9.64% |           0      0.00%      9.64% |           0      0.00%      9.64% |         597      9.50%     19.14% |           0      0.00%     19.14% |           0      0.00%     19.14% |           0      0.00%     19.14% |         571      9.09%     28.23% |           0      0.00%     28.23% |           0      0.00%     28.23% |           0      0.00%     28.23% |         565      8.99%     37.22% |           0      0.00%     37.22% |           0      0.00%     37.22% |           0      0.00%     37.22% |        1223     19.46%     56.67% |           0      0.00%     56.67% |           0      0.00%     56.67% |           0      0.00%     56.67% |        1439     22.90%     79.57% |           0      0.00%     79.57% |           0      0.00%     79.57% |           0      0.00%     79.57% |         680     10.82%     90.39% |           0      0.00%     90.39% |           0      0.00%     90.39% |           0      0.00%     90.39% |         604      9.61%    100.00% |           0      0.00%    100.00% # Number of accesses per bank
system.ruby.dir_cntrl11.memBuffer.memBankCount::total         6285                       # Number of accesses per bank

system.ruby.dir_cntrl12.memBuffer.memReq         6907                       # Total number of memory requests
system.ruby.dir_cntrl12.memBuffer.memRead         5541                       # Number of memory reads
system.ruby.dir_cntrl12.memBuffer.memWrite         1366                       # Number of memory writes
system.ruby.dir_cntrl12.memBuffer.memRefresh       102649                       # Number of memory refreshes
system.ruby.dir_cntrl12.memBuffer.memWaitCycles        13384                       # Delay stalled at the head of the bank queue
system.ruby.dir_cntrl12.memBuffer.memInputQ           77                       # Delay in the input queue
system.ruby.dir_cntrl12.memBuffer.memBankQ         1020                       # Delay behind the head of the bank queue
system.ruby.dir_cntrl12.memBuffer.totalStalls        14481                       # Total number of stall cycles
system.ruby.dir_cntrl12.memBuffer.stallsPerReq     2.096569                       # Expected number of stall cycles per request
system.ruby.dir_cntrl12.memBuffer.memBankBusy        12955                       # memory stalls due to busy bank
system.ruby.dir_cntrl12.memBuffer.memBusBusy          374                       # memory stalls due to busy bus
system.ruby.dir_cntrl12.memBuffer.memDataBusBusy            2                       # memory stalls due to read read turnaround
system.ruby.dir_cntrl12.memBuffer.memArbWait           53                       # memory stalls due to arbitration
system.ruby.dir_cntrl12.memBuffer.memBankCount |           0      0.00%      0.00% |           0      0.00%      0.00% |           0      0.00%      0.00% |         648      9.38%      9.38% |           0      0.00%      9.38% |           0      0.00%      9.38% |           0      0.00%      9.38% |         613      8.88%     18.26% |           0      0.00%     18.26% |           0      0.00%     18.26% |           0      0.00%     18.26% |         578      8.37%     26.63% |           0      0.00%     26.63% |           0      0.00%     26.63% |           0      0.00%     26.63% |         571      8.27%     34.89% |           0      0.00%     34.89% |           0      0.00%     34.89% |           0      0.00%     34.89% |        1421     20.57%     55.47% |           0      0.00%     55.47% |           0      0.00%     55.47% |           0      0.00%     55.47% |        1651     23.90%     79.37% |           0      0.00%     79.37% |           0      0.00%     79.37% |           0      0.00%     79.37% |         777     11.25%     90.62% |           0      0.00%     90.62% |           0      0.00%     90.62% |           0      0.00%     90.62% |         648      9.38%    100.00% # Number of accesses per bank
system.ruby.dir_cntrl12.memBuffer.memBankCount::total         6907                       # Number of accesses per bank

system.ruby.dir_cntrl13.memBuffer.memReq         6165                       # Total number of memory requests
system.ruby.dir_cntrl13.memBuffer.memRead         4988                       # Number of memory reads
system.ruby.dir_cntrl13.memBuffer.memWrite         1177                       # Number of memory writes
system.ruby.dir_cntrl13.memBuffer.memRefresh        95122                       # Number of memory refreshes
system.ruby.dir_cntrl13.memBuffer.memWaitCycles        11177                       # Delay stalled at the head of the bank queue
system.ruby.dir_cntrl13.memBuffer.memInputQ           16                       # Delay in the input queue
system.ruby.dir_cntrl13.memBuffer.memBankQ          121                       # Delay behind the head of the bank queue
system.ruby.dir_cntrl13.memBuffer.totalStalls        11314                       # Total number of stall cycles
system.ruby.dir_cntrl13.memBuffer.stallsPerReq     1.835199                       # Expected number of stall cycles per request
system.ruby.dir_cntrl13.memBuffer.memBankBusy        10789                       # memory stalls due to busy bank
system.ruby.dir_cntrl13.memBuffer.memBusBusy          345                       # memory stalls due to busy bus
system.ruby.dir_cntrl13.memBuffer.memDataBusBusy            1                       # memory stalls due to read read turnaround
system.ruby.dir_cntrl13.memBuffer.memArbWait           42                       # memory stalls due to arbitration
system.ruby.dir_cntrl13.memBuffer.memBankCount |           0      0.00%      0.00% |           0      0.00%      0.00% |           0      0.00%      0.00% |         613      9.94%      9.94% |           0      0.00%      9.94% |           0      0.00%      9.94% |           0      0.00%      9.94% |         600      9.73%     19.68% |           0      0.00%     19.68% |           0      0.00%     19.68% |           0      0.00%     19.68% |         584      9.47%     29.15% |           0      0.00%     29.15% |           0      0.00%     29.15% |           0      0.00%     29.15% |         582      9.44%     38.59% |           0      0.00%     38.59% |           0      0.00%     38.59% |           0      0.00%     38.59% |        1300     21.09%     59.68% |           0      0.00%     59.68% |           0      0.00%     59.68% |           0      0.00%     59.68% |        1211     19.64%     79.32% |           0      0.00%     79.32% |           0      0.00%     79.32% |           0      0.00%     79.32% |         629     10.20%     89.52% |           0      0.00%     89.52% |           0      0.00%     89.52% |           0      0.00%     89.52% |         646     10.48%    100.00% # Number of accesses per bank
system.ruby.dir_cntrl13.memBuffer.memBankCount::total         6165                       # Number of accesses per bank

system.ruby.dir_cntrl14.memBuffer.memReq         6317                       # Total number of memory requests
system.ruby.dir_cntrl14.memBuffer.memRead         5158                       # Number of memory reads
system.ruby.dir_cntrl14.memBuffer.memWrite         1159                       # Number of memory writes
system.ruby.dir_cntrl14.memBuffer.memRefresh        95491                       # Number of memory refreshes
system.ruby.dir_cntrl14.memBuffer.memWaitCycles        11651                       # Delay stalled at the head of the bank queue
system.ruby.dir_cntrl14.memBuffer.memInputQ          269                       # Delay in the input queue
system.ruby.dir_cntrl14.memBuffer.memBankQ         5554                       # Delay behind the head of the bank queue
system.ruby.dir_cntrl14.memBuffer.totalStalls        17474                       # Total number of stall cycles
system.ruby.dir_cntrl14.memBuffer.stallsPerReq     2.766186                       # Expected number of stall cycles per request
system.ruby.dir_cntrl14.memBuffer.memBankBusy        11246                       # memory stalls due to busy bank
system.ruby.dir_cntrl14.memBuffer.memBusBusy          362                       # memory stalls due to busy bus
system.ruby.dir_cntrl14.memBuffer.memDataBusBusy            4                       # memory stalls due to read read turnaround
system.ruby.dir_cntrl14.memBuffer.memArbWait           39                       # memory stalls due to arbitration
system.ruby.dir_cntrl14.memBuffer.memBankCount |           0      0.00%      0.00% |           0      0.00%      0.00% |           0      0.00%      0.00% |         659     10.43%     10.43% |           0      0.00%     10.43% |           0      0.00%     10.43% |           0      0.00%     10.43% |         621      9.83%     20.26% |           0      0.00%     20.26% |           0      0.00%     20.26% |           0      0.00%     20.26% |         583      9.23%     29.49% |           0      0.00%     29.49% |           0      0.00%     29.49% |           0      0.00%     29.49% |         564      8.93%     38.42% |           0      0.00%     38.42% |           0      0.00%     38.42% |           0      0.00%     38.42% |        1375     21.77%     60.19% |           0      0.00%     60.19% |           0      0.00%     60.19% |           0      0.00%     60.19% |        1185     18.76%     78.95% |           0      0.00%     78.95% |           0      0.00%     78.95% |           0      0.00%     78.95% |         698     11.05%     90.00% |           0      0.00%     90.00% |           0      0.00%     90.00% |           0      0.00%     90.00% |         632     10.00%    100.00% # Number of accesses per bank
system.ruby.dir_cntrl14.memBuffer.memBankCount::total         6317                       # Number of accesses per bank

system.ruby.dir_cntrl15.memBuffer.memReq         5960                       # Total number of memory requests
system.ruby.dir_cntrl15.memBuffer.memRead         4893                       # Number of memory reads
system.ruby.dir_cntrl15.memBuffer.memWrite         1067                       # Number of memory writes
system.ruby.dir_cntrl15.memBuffer.memRefresh        92527                       # Number of memory refreshes
system.ruby.dir_cntrl15.memBuffer.memWaitCycles        10076                       # Delay stalled at the head of the bank queue
system.ruby.dir_cntrl15.memBuffer.memInputQ           16                       # Delay in the input queue
[...]
system.ruby.l2_cntrl0.MT_MB.L1_GETX::total        44713                      

system.ruby.l2_cntrl0.MT_MB.L1_PUTX      |           0      0.00%      0.00% |           0      0.00%      0.00% |           0      0.00%      0.00% |           0      0.00%      0.00% |           1    100.00%    100.00% |           0      0.00%    100.00% |           0      0.00%    100.00% |           0      0.00%    100.00% |           0      0.00%    100.00% |           0      0.00%    100.00% |           0      0.00%    100.00% |           0      0.00%    100.00% |           0      0.00%    100.00% |           0      0.00%    100.00% |           0      0.00%    100.00% |           0      0.00%    100.00%
system.ruby.l2_cntrl0.MT_MB.L1_PUTX::total            1                      

system.ruby.l2_cntrl0.MT_MB.Exclusive_Unblock |      292861      8.37%      8.37% |      138928      3.97%     12.34% |      259190      7.41%     19.75% |      169784      4.85%     24.60% |      260545      7.45%     32.05% |      150737      4.31%     36.35% |      284239      8.12%     44.48% |      129332      3.70%     48.17% |      291470      8.33%     56.50% |      182438      5.21%     61.72% |      267859      7.66%     69.37% |      184662      5.28%     74.65% |      314549      8.99%     83.64% |      168543      4.82%     88.45% |      270083      7.72%     96.17% |      133906      3.83%    100.00%
system.ruby.l2_cntrl0.MT_MB.Exclusive_Unblock::total      3499126                      

system.ruby.l2_cntrl0.MT_IIB.L1_GETS     |       33538     63.83%     63.83% |        4085      7.78%     71.61% |         951      1.81%     73.42% |        2076      3.95%     77.37% |         343      0.65%     78.02% |        7726     14.71%     92.73% |         544      1.04%     93.76% |         206      0.39%     94.16% |         791      1.51%     95.66% |         113      0.22%     95.88% |         156      0.30%     96.17% |         393      0.75%     96.92% |          47      0.09%     97.01% |        1378      2.62%     99.63% |          73      0.14%     99.77% |         119      0.23%    100.00%
system.ruby.l2_cntrl0.MT_IIB.L1_GETS::total        52539                      

system.ruby.l2_cntrl0.MT_IIB.L1_GETX     |        4371     75.56%     75.56% |         248      4.29%     79.84% |          51      0.88%     80.73% |         122      2.11%     82.83% |          18      0.31%     83.15% |         708     12.24%     95.38% |          26      0.45%     95.83% |          15      0.26%     96.09% |          52      0.90%     96.99% |           8      0.14%     97.13% |          13      0.22%     97.36% |          19      0.33%     97.68% |           2      0.03%     97.72% |         119      2.06%     99.78% |           1      0.02%     99.79% |          12      0.21%    100.00%
system.ruby.l2_cntrl0.MT_IIB.L1_GETX::total         5785                      

system.ruby.l2_cntrl0.MT_IIB.L1_UPGRADE  |           0      0.00%      0.00% |           0      0.00%      0.00% |           0      0.00%      0.00% |           0      0.00%      0.00% |           0      0.00%      0.00% |           2    100.00%    100.00% |           0      0.00%    100.00% |           0      0.00%    100.00% |           0      0.00%    100.00% |           0      0.00%    100.00% |           0      0.00%    100.00% |           0      0.00%    100.00% |           0      0.00%    100.00% |           0      0.00%    100.00% |           0      0.00%    100.00% |           0      0.00%    100.00%
system.ruby.l2_cntrl0.MT_IIB.L1_UPGRADE::total            2                      

system.ruby.l2_cntrl0.MT_IIB.L1_PUTX     |           7     70.00%     70.00% |           0      0.00%     70.00% |           0      0.00%     70.00% |           0      0.00%     70.00% |           0      0.00%     70.00% |           1     10.00%     80.00% |           0      0.00%     80.00% |           0      0.00%     80.00% |           0      0.00%     80.00% |           0      0.00%     80.00% |           0      0.00%     80.00% |           0      0.00%     80.00% |           1     10.00%     90.00% |           0      0.00%     90.00% |           0      0.00%     90.00% |           1     10.00%    100.00%
system.ruby.l2_cntrl0.MT_IIB.L1_PUTX::total           10                      

system.ruby.l2_cntrl0.MT_IIB.WB_Data     |        7369     10.30%     10.30% |        5494      7.68%     17.98% |        4931      6.89%     24.88% |        5766      8.06%     32.94% |        5127      7.17%     40.11% |        5330      7.45%     47.56% |        5691      7.96%     55.51% |        3796      5.31%     60.82% |        4981      6.96%     67.78% |        3151      4.41%     72.19% |        4429      6.19%     78.38% |        3574      5.00%     83.38% |        3409      4.77%     88.14% |        3471      4.85%     93.00% |        2649      3.70%     96.70% |        2361      3.30%    100.00%
system.ruby.l2_cntrl0.MT_IIB.WB_Data::total        71529                      

system.ruby.l2_cntrl0.MT_IIB.WB_Data_clean |          50      8.64%      8.64% |           4      0.69%      9.33% |          53      9.15%     18.48% |          20      3.45%     21.93% |          45      7.77%     29.71% |          25      4.32%     34.02% |          75     12.95%     46.98% |          12      2.07%     49.05% |          56      9.67%     58.72% |          23      3.97%     62.69% |          64     11.05%     73.75% |          14      2.42%     76.17% |          59     10.19%     86.36% |          17      2.94%     89.29% |          54      9.33%     98.62% |           8      1.38%    100.00%
system.ruby.l2_cntrl0.MT_IIB.WB_Data_clean::total          579                      

system.ruby.l2_cntrl0.MT_IIB.Unblock     |        9159     19.08%     19.08% |        4321      9.00%     28.09% |        3027      6.31%     34.40% |        3032      6.32%     40.71% |        2537      5.29%     46.00% |        2715      5.66%     51.66% |        2541      5.29%     56.95% |        1934      4.03%     60.98% |        2764      5.76%     66.74% |        1722      3.59%     70.33% |        2517      5.24%     75.57% |        1979      4.12%     79.70% |        2076      4.33%     84.02% |        2665      5.55%     89.58% |        2523      5.26%     94.83% |        2479      5.17%    100.00%
system.ruby.l2_cntrl0.MT_IIB.Unblock::total        47991                      

system.ruby.l2_cntrl0.MT_IB.L1_GETS      |           0      0.00%      0.00% |           1     11.11%     11.11% |           0      0.00%     11.11% |           1     11.11%     22.22% |           0      0.00%     22.22% |           6     66.67%     88.89% |           0      0.00%     88.89% |           0      0.00%     88.89% |           0      0.00%     88.89% |           0      0.00%     88.89% |           0      0.00%     88.89% |           0      0.00%     88.89% |           0      0.00%     88.89% |           1     11.11%    100.00% |           0      0.00%    100.00% |           0      0.00%    100.00%
system.ruby.l2_cntrl0.MT_IB.L1_GETS::total            9                      

system.ruby.l2_cntrl0.MT_IB.L1_GETX      |           3     60.00%     60.00% |           0      0.00%     60.00% |           0      0.00%     60.00% |           1     20.00%     80.00% |           0      0.00%     80.00% |           0      0.00%     80.00% |           0      0.00%     80.00% |           1     20.00%    100.00% |           0      0.00%    100.00% |           0      0.00%    100.00% |           0      0.00%    100.00% |           0      0.00%    100.00% |           0      0.00%    100.00% |           0      0.00%    100.00% |           0      0.00%    100.00% |           0      0.00%    100.00%
system.ruby.l2_cntrl0.MT_IB.L1_GETX::total            5                      

system.ruby.l2_cntrl0.MT_IB.L1_UPGRADE   |           0      0.00%      0.00% |           0      0.00%      0.00% |           0      0.00%      0.00% |           0      0.00%      0.00% |           0      0.00%      0.00% |           1    100.00%    100.00% |           0      0.00%    100.00% |           0      0.00%    100.00% |           0      0.00%    100.00% |           0      0.00%    100.00% |           0      0.00%    100.00% |           0      0.00%    100.00% |           0      0.00%    100.00% |           0      0.00%    100.00% |           0      0.00%    100.00% |           0      0.00%    100.00%
system.ruby.l2_cntrl0.MT_IB.L1_UPGRADE::total            1                      

system.ruby.l2_cntrl0.MT_IB.WB_Data      |        9115     19.13%     19.13% |        4315      9.06%     28.18% |        2994      6.28%     34.47% |        3023      6.34%     40.81% |        2509      5.27%     46.08% |        2707      5.68%     51.76% |        2508      5.26%     57.02% |        1929      4.05%     61.07% |        2732      5.73%     66.80% |        1715      3.60%     70.40% |        2482      5.21%     75.61% |        1976      4.15%     79.76% |        2030      4.26%     84.02% |        2654      5.57%     89.59% |        2502      5.25%     94.84% |        2459      5.16%    100.00%
system.ruby.l2_cntrl0.MT_IB.WB_Data::total        47650                      

system.ruby.l2_cntrl0.MT_IB.WB_Data_clean |          44     12.90%     12.90% |           6      1.76%     14.66% |          33      9.68%     24.34% |           9      2.64%     26.98% |          28      8.21%     35.19% |           8      2.35%     37.54% |          33      9.68%     47.21% |           5      1.47%     48.68% |          32      9.38%     58.06% |           7      2.05%     60.12% |          35     10.26%     70.38% |           3      0.88%     71.26% |          46     13.49%     84.75% |          11      3.23%     87.98% |          21      6.16%     94.13% |          20      5.87%    100.00%
system.ruby.l2_cntrl0.MT_IB.WB_Data_clean::total          341                      

system.ruby.l2_cntrl0.MT_SB.L1_GETS      |         462     45.97%     45.97% |          94      9.35%     55.32% |          32      3.18%     58.51% |          47      4.68%     63.18% |          15      1.49%     64.68% |         170     16.92%     81.59% |          27      2.69%     84.28% |          26      2.59%     86.87% |          20      1.99%     88.86% |          17      1.69%     90.55% |          13      1.29%     91.84% |          14      1.39%     93.23% |           8      0.80%     94.03% |          44      4.38%     98.41% |           3      0.30%     98.71% |          13      1.29%    100.00%
system.ruby.l2_cntrl0.MT_SB.L1_GETS::total         1005                      

system.ruby.l2_cntrl0.MT_SB.L1_GETX      |          49     37.69%     37.69% |          10      7.69%     45.38% |           5      3.85%     49.23% |           8      6.15%     55.38% |           1      0.77%     56.15% |          11      8.46%     64.62% |          10      7.69%     72.31% |           2      1.54%     73.85% |          11      8.46%     82.31% |           2      1.54%     83.85% |           3      2.31%     86.15% |           6      4.62%     90.77% |           0      0.00%     90.77% |           6      4.62%     95.38% |           0      0.00%     95.38% |           6      4.62%    100.00%
system.ruby.l2_cntrl0.MT_SB.L1_GETX::total          130                      

system.ruby.l2_cntrl0.MT_SB.L1_UPGRADE   |          36     12.46%     12.46% |           7      2.42%     14.88% |          15      5.19%     20.07% |          23      7.96%     28.03% |          23      7.96%     35.99% |          89     30.80%     66.78% |          15      5.19%     71.97% |          14      4.84%     76.82% |          10      3.46%     80.28% |           9      3.11%     83.39% |          10      3.46%     86.85% |          10      3.46%     90.31% |           6      2.08%     92.39% |           8      2.77%     95.16% |           6      2.08%     97.23% |           8      2.77%    100.00%
system.ruby.l2_cntrl0.MT_SB.L1_UPGRADE::total          289                      

system.ruby.l2_cntrl0.MT_SB.Unblock      |        7419     10.29%     10.29% |        5498      7.62%     17.91% |        4984      6.91%     24.83% |        5786      8.02%     32.85% |        5172      7.17%     40.02% |        5355      7.43%     47.45% |        5766      8.00%     55.44% |        3808      5.28%     60.73% |        5037      6.99%     67.71% |        3174      4.40%     72.11% |        4493      6.23%     78.34% |        3588      4.98%     83.32% |        3468      4.81%     88.13% |        3488      4.84%     92.97% |        2703      3.75%     96.71% |        2369      3.29%    100.00%
system.ruby.l2_cntrl0.MT_SB.Unblock::total        72108                      

system.ruby.dir_cntrl0.Fetch             |        5652      6.66%      6.66% |        5186      6.11%     12.78% |        5456      6.43%     19.21% |        5151      6.07%     25.28% |        5398      6.36%     31.65% |        5193      6.12%     37.77% |        5501      6.49%     44.26% |        5201      6.13%     50.39% |        5669      6.68%     57.07% |        5152      6.07%     63.15% |        5625      6.63%     69.78% |        5052      5.96%     75.74% |        5541      6.53%     82.27% |        4988      5.88%     88.15% |        5158      6.08%     94.23% |        4893      5.77%    100.00%
system.ruby.dir_cntrl0.Fetch::total             84816                      

system.ruby.dir_cntrl0.Data              |        1455      6.94%      6.94% |        1321      6.30%     13.24% |        1326      6.33%     19.57% |        1274      6.08%     25.65% |        1334      6.36%     32.01% |        1314      6.27%     38.28% |        1381      6.59%     44.87% |        1362      6.50%     51.37% |        1459      6.96%     58.33% |        1285      6.13%     64.46% |        1446      6.90%     71.36% |        1233      5.88%     77.25% |        1366      6.52%     83.76% |        1177      5.62%     89.38% |        1159      5.53%     94.91% |        1067      5.09%    100.00%
system.ruby.dir_cntrl0.Data::total              20959                      

system.ruby.dir_cntrl0.Memory_Data       |        5652      6.66%      6.66% |        5186      6.11%     12.78% |        5456      6.43%     19.21% |        5151      6.07%     25.28% |        5398      6.36%     31.65% |        5193      6.12%     37.77% |        5501      6.49%     44.26% |        5201      6.13%     50.39% |        5669      6.68%     57.07% |        5152      6.07%     63.15% |        5625      6.63%     69.78% |        5052      5.96%     75.74% |        5541      6.53%     82.27% |        4988      5.88%     88.15% |        5158      6.08%     94.23% |        4893      5.77%    100.00%
system.ruby.dir_cntrl0.Memory_Data::total        84816                      

system.ruby.dir_cntrl0.Memory_Ack        |        1455      6.94%      6.94% |        1321      6.30%     13.24% |        1326      6.33%     19.57% |        1274      6.08%     25.65% |        1334      6.36%     32.01% |        1314      6.27%     38.28% |        1381      6.59%     44.87% |        1362      6.50%     51.37% |        1459      6.96%     58.33% |        1285      6.13%     64.46% |        1446      6.90%     71.36% |        1233      5.88%     77.25% |        1366      6.52%     83.76% |        1177      5.62%     89.38% |        1159      5.53%     94.91% |        1067      5.09%    100.00%
system.ruby.dir_cntrl0.Memory_Ack::total        20959                      

system.ruby.dir_cntrl0.CleanReplacement  |         477      9.62%      9.62% |         162      3.27%     12.89% |         425      8.57%     21.46% |         183      3.69%     25.16% |         373      7.52%     32.68% |         189      3.81%     36.49% |         428      8.63%     45.13% |         164      3.31%     48.44% |         535     10.79%     59.23% |         194      3.91%     63.14% |         516     10.41%     73.55% |         162      3.27%     76.82% |         514     10.37%     87.19% |         150      3.03%     90.22% |         342      6.90%     97.12% |         143      2.88%    100.00%
system.ruby.dir_cntrl0.CleanReplacement::total         4957                      

system.ruby.dir_cntrl0.I.Fetch           |        5652      6.66%      6.66% |        5186      6.11%     12.78% |        5456      6.43%     19.21% |        5151      6.07%     25.28% |        5398      6.36%     31.65% |        5193      6.12%     37.77% |        5501      6.49%     44.26% |        5201      6.13%     50.39% |        5669      6.68%     57.07% |        5152      6.07%     63.15% |        5625      6.63%     69.78% |        5052      5.96%     75.74% |        5541      6.53%     82.27% |        4988      5.88%     88.15% |        5158      6.08%     94.23% |        4893      5.77%    100.00%
system.ruby.dir_cntrl0.I.Fetch::total           84816                      

system.ruby.dir_cntrl0.M.Data            |        1455      6.94%      6.94% |        1321      6.30%     13.24% |        1326      6.33%     19.57% |        1274      6.08%     25.65% |        1334      6.36%     32.01% |        1314      6.27%     38.28% |        1381      6.59%     44.87% |        1362      6.50%     51.37% |        1459      6.96%     58.33% |        1285      6.13%     64.46% |        1446      6.90%     71.36% |        1233      5.88%     77.25% |        1366      6.52%     83.76% |        1177      5.62%     89.38% |        1159      5.53%     94.91% |        1067      5.09%    100.00%
system.ruby.dir_cntrl0.M.Data::total            20959                      

system.ruby.dir_cntrl0.M.CleanReplacement |         477      9.62%      9.62% |         162      3.27%     12.89% |         425      8.57%     21.46% |         183      3.69%     25.16% |         373      7.52%     32.68% |         189      3.81%     36.49% |         428      8.63%     45.13% |         164      3.31%     48.44% |         535     10.79%     59.23% |         194      3.91%     63.14% |         516     10.41%     73.55% |         162      3.27%     76.82% |         514     10.37%     87.19% |         150      3.03%     90.22% |         342      6.90%     97.12% |         143      2.88%    100.00%
system.ruby.dir_cntrl0.M.CleanReplacement::total         4957                      

system.ruby.dir_cntrl0.IM.Memory_Data    |        5652      6.66%      6.66% |        5186      6.11%     12.78% |        5456      6.43%     19.21% |        5151      6.07%     25.28% |        5398      6.36%     31.65% |        5193      6.12%     37.77% |        5501      6.49%     44.26% |        5201      6.13%     50.39% |        5669      6.68%     57.07% |        5152      6.07%     63.15% |        5625      6.63%     69.78% |        5052      5.96%     75.74% |        5541      6.53%     82.27% |        4988      5.88%     88.15% |        5158      6.08%     94.23% |        4893      5.77%    100.00%
system.ruby.dir_cntrl0.IM.Memory_Data::total        84816                      

system.ruby.dir_cntrl0.MI.Memory_Ack     |        1455      6.94%      6.94% |        1321      6.30%     13.24% |        1326      6.33%     19.57% |        1274      6.08%     25.65% |        1334      6.36%     32.01% |        1314      6.27%     38.28% |        1381      6.59%     44.87% |        1362      6.50%     51.37% |        1459      6.96%     58.33% |        1285      6.13%     64.46% |        1446      6.90%     71.36% |        1233      5.88%     77.25% |        1366      6.52%     83.76% |        1177      5.62%     89.38% |        1159      5.53%     94.91% |        1067      5.09%    100.00%
system.ruby.dir_cntrl0.MI.Memory_Ack::total        20959                      


---------- End Simulation Statistics   ----------
