
---------- Begin Simulation Statistics ----------
sim_seconds                                  0.039422                       # Number of seconds simulated
sim_ticks                                 39421821000                       # Number of ticks simulated
final_tick                                39421821000                       # Number of ticks from beginning of simulation (restored from checkpoints and never reset)
sim_freq                                 1000000000000                       # Frequency of simulated ticks
host_inst_rate                                 132964                       # Simulator instruction rate (inst/s)
host_op_rate                                   204078                       # Simulator op (including micro ops) rate (op/s)
host_tick_rate                               57048434                       # Simulator tick rate (ticks/s)
host_mem_usage                                 414120                       # Number of bytes of host memory used
host_seconds                                   691.02                       # Real time elapsed on the host
sim_insts                                    91881278                       # Number of instructions simulated
sim_ops                                     141022822                       # Number of ops (including micro ops) simulated
system.ruby.l2_cntrl5.L2cache.demand_hits        35699                       # Number of cache demand hits
system.ruby.l2_cntrl5.L2cache.demand_misses        25310                       # Number of cache demand misses
system.ruby.l2_cntrl5.L2cache.demand_accesses        61009                       # Number of cache demand accesses
system.ruby.l2_cntrl4.L2cache.demand_hits        35579                       # Number of cache demand hits
system.ruby.l2_cntrl4.L2cache.demand_misses        25327                       # Number of cache demand misses
system.ruby.l2_cntrl4.L2cache.demand_accesses        60906                       # Number of cache demand accesses
system.ruby.l2_cntrl11.L2cache.demand_hits        35843                       # Number of cache demand hits
system.ruby.l2_cntrl11.L2cache.demand_misses        25543                       # Number of cache demand misses
system.ruby.l2_cntrl11.L2cache.demand_accesses        61386                       # Number of cache demand accesses
system.ruby.l2_cntrl10.L2cache.demand_hits        36273                       # Number of cache demand hits
system.ruby.l2_cntrl10.L2cache.demand_misses        25428                       # Number of cache demand misses
system.ruby.l2_cntrl10.L2cache.demand_accesses        61701                       # Number of cache demand accesses
system.ruby.l2_cntrl13.L2cache.demand_hits        35618                       # Number of cache demand hits
system.ruby.l2_cntrl13.L2cache.demand_misses        25405                       # Number of cache demand misses
system.ruby.l2_cntrl13.L2cache.demand_accesses        61023                       # Number of cache demand accesses
system.ruby.l2_cntrl12.L2cache.demand_hits        35521                       # Number of cache demand hits
system.ruby.l2_cntrl12.L2cache.demand_misses        25398                       # Number of cache demand misses
system.ruby.l2_cntrl12.L2cache.demand_accesses        60919                       # Number of cache demand accesses
system.ruby.l2_cntrl15.L2cache.demand_hits        35282                       # Number of cache demand hits
system.ruby.l2_cntrl15.L2cache.demand_misses        25446                       # Number of cache demand misses
system.ruby.l2_cntrl15.L2cache.demand_accesses        60728                       # Number of cache demand accesses
system.ruby.l2_cntrl14.L2cache.demand_hits        35258                       # Number of cache demand hits
system.ruby.l2_cntrl14.L2cache.demand_misses        25224                       # Number of cache demand misses
system.ruby.l2_cntrl14.L2cache.demand_accesses        60482                       # Number of cache demand accesses
system.ruby.l1_cntrl4.L1Dcache.demand_hits       746337                       # Number of cache demand hits
system.ruby.l1_cntrl4.L1Dcache.demand_misses        64485                       # Number of cache demand misses
system.ruby.l1_cntrl4.L1Dcache.demand_accesses       810822                       # Number of cache demand accesses
system.ruby.l1_cntrl4.L1Icache.demand_hits      8048272                       # Number of cache demand hits
system.ruby.l1_cntrl4.L1Icache.demand_misses          236                       # Number of cache demand misses
system.ruby.l1_cntrl4.L1Icache.demand_accesses      8048508                       # Number of cache demand accesses
system.ruby.l1_cntrl4.prefetcher.miss_observed            0                       # number of misses observed
system.ruby.l1_cntrl4.prefetcher.allocated_streams            0                       # number of streams allocated for prefetching
system.ruby.l1_cntrl4.prefetcher.prefetches_requested            0                       # number of prefetch requests made
system.ruby.l1_cntrl4.prefetcher.prefetches_accepted            0                       # number of prefetch requests accepted
system.ruby.l1_cntrl4.prefetcher.dropped_prefetches            0                       # number of prefetch requests dropped
system.ruby.l1_cntrl4.prefetcher.hits               0                       # number of prefetched blocks accessed
system.ruby.l1_cntrl4.prefetcher.partial_hits            0                       # number of misses observed for a block being prefetched
system.ruby.l1_cntrl4.prefetcher.pages_crossed            0                       # number of prefetches across pages
system.ruby.l1_cntrl4.prefetcher.misses_on_prefetched_blocks            0                       # number of misses for blocks that were prefetched, yet missed
system.ruby.l1_cntrl5.L1Dcache.demand_hits       765974                       # Number of cache demand hits
system.ruby.l1_cntrl5.L1Dcache.demand_misses        60305                       # Number of cache demand misses
system.ruby.l1_cntrl5.L1Dcache.demand_accesses       826279                       # Number of cache demand accesses
system.ruby.l1_cntrl5.L1Icache.demand_hits      8086971                       # Number of cache demand hits
system.ruby.l1_cntrl5.L1Icache.demand_misses          209                       # Number of cache demand misses
system.ruby.l1_cntrl5.L1Icache.demand_accesses      8087180                       # Number of cache demand accesses
system.ruby.l1_cntrl5.prefetcher.miss_observed            0                       # number of misses observed
system.ruby.l1_cntrl5.prefetcher.allocated_streams            0                       # number of streams allocated for prefetching
system.ruby.l1_cntrl5.prefetcher.prefetches_requested            0                       # number of prefetch requests made
system.ruby.l1_cntrl5.prefetcher.prefetches_accepted            0                       # number of prefetch requests accepted
system.ruby.l1_cntrl5.prefetcher.dropped_prefetches            0                       # number of prefetch requests dropped
system.ruby.l1_cntrl5.prefetcher.hits               0                       # number of prefetched blocks accessed
system.ruby.l1_cntrl5.prefetcher.partial_hits            0                       # number of misses observed for a block being prefetched
system.ruby.l1_cntrl5.prefetcher.pages_crossed            0                       # number of prefetches across pages
system.ruby.l1_cntrl5.prefetcher.misses_on_prefetched_blocks            0                       # number of misses for blocks that were prefetched, yet missed
system.ruby.l1_cntrl6.L1Dcache.demand_hits       759721                       # Number of cache demand hits
system.ruby.l1_cntrl6.L1Dcache.demand_misses        61936                       # Number of cache demand misses
system.ruby.l1_cntrl6.L1Dcache.demand_accesses       821657                       # Number of cache demand accesses
system.ruby.l1_cntrl6.L1Icache.demand_hits      8076649                       # Number of cache demand hits
system.ruby.l1_cntrl6.L1Icache.demand_misses          240                       # Number of cache demand misses
system.ruby.l1_cntrl6.L1Icache.demand_accesses      8076889                       # Number of cache demand accesses
system.ruby.l1_cntrl6.prefetcher.miss_observed            0                       # number of misses observed
system.ruby.l1_cntrl6.prefetcher.allocated_streams            0                       # number of streams allocated for prefetching
system.ruby.l1_cntrl6.prefetcher.prefetches_requested            0                       # number of prefetch requests made
system.ruby.l1_cntrl6.prefetcher.prefetches_accepted            0                       # number of prefetch requests accepted
system.ruby.l1_cntrl6.prefetcher.dropped_prefetches            0                       # number of prefetch requests dropped
system.ruby.l1_cntrl6.prefetcher.hits               0                       # number of prefetched blocks accessed
system.ruby.l1_cntrl6.prefetcher.partial_hits            0                       # number of misses observed for a block being prefetched
system.ruby.l1_cntrl6.prefetcher.pages_crossed            0                       # number of prefetches across pages
system.ruby.l1_cntrl6.prefetcher.misses_on_prefetched_blocks            0                       # number of misses for blocks that were prefetched, yet missed
system.ruby.l1_cntrl7.L1Dcache.demand_hits       767236                       # Number of cache demand hits
system.ruby.l1_cntrl7.L1Dcache.demand_misses        60265                       # Number of cache demand misses
system.ruby.l1_cntrl7.L1Dcache.demand_accesses       827501                       # Number of cache demand accesses
system.ruby.l1_cntrl7.L1Icache.demand_hits      8093642                       # Number of cache demand hits
system.ruby.l1_cntrl7.L1Icache.demand_misses          219                       # Number of cache demand misses
system.ruby.l1_cntrl7.L1Icache.demand_accesses      8093861                       # Number of cache demand accesses
system.ruby.l1_cntrl7.prefetcher.miss_observed            0                       # number of misses observed
system.ruby.l1_cntrl7.prefetcher.allocated_streams            0                       # number of streams allocated for prefetching
system.ruby.l1_cntrl7.prefetcher.prefetches_requested            0                       # number of prefetch requests made
system.ruby.l1_cntrl7.prefetcher.prefetches_accepted            0                       # number of prefetch requests accepted
system.ruby.l1_cntrl7.prefetcher.dropped_prefetches            0                       # number of prefetch requests dropped
system.ruby.l1_cntrl7.prefetcher.hits               0                       # number of prefetched blocks accessed
system.ruby.l1_cntrl7.prefetcher.partial_hits            0                       # number of misses observed for a block being prefetched
system.ruby.l1_cntrl7.prefetcher.pages_crossed            0                       # number of prefetches across pages
system.ruby.l1_cntrl7.prefetcher.misses_on_prefetched_blocks            0                       # number of misses for blocks that were prefetched, yet missed
system.ruby.l1_cntrl0.L1Dcache.demand_hits       738127                       # Number of cache demand hits
system.ruby.l1_cntrl0.L1Dcache.demand_misses        59057                       # Number of cache demand misses
system.ruby.l1_cntrl0.L1Dcache.demand_accesses       797184                       # Number of cache demand accesses
system.ruby.l1_cntrl0.L1Icache.demand_hits      8062345                       # Number of cache demand hits
system.ruby.l1_cntrl0.L1Icache.demand_misses          830                       # Number of cache demand misses
system.ruby.l1_cntrl0.L1Icache.demand_accesses      8063175                       # Number of cache demand accesses
system.ruby.l1_cntrl0.prefetcher.miss_observed            0                       # number of misses observed
system.ruby.l1_cntrl0.prefetcher.allocated_streams            0                       # number of streams allocated for prefetching
system.ruby.l1_cntrl0.prefetcher.prefetches_requested            0                       # number of prefetch requests made
system.ruby.l1_cntrl0.prefetcher.prefetches_accepted            0                       # number of prefetch requests accepted
system.ruby.l1_cntrl0.prefetcher.dropped_prefetches            0                       # number of prefetch requests dropped
system.ruby.l1_cntrl0.prefetcher.hits               0                       # number of prefetched blocks accessed
system.ruby.l1_cntrl0.prefetcher.partial_hits            0                       # number of misses observed for a block being prefetched
system.ruby.l1_cntrl0.prefetcher.pages_crossed            0                       # number of prefetches across pages
system.ruby.l1_cntrl0.prefetcher.misses_on_prefetched_blocks            0                       # number of misses for blocks that were prefetched, yet missed
system.ruby.l1_cntrl1.L1Dcache.demand_hits       721657                       # Number of cache demand hits
system.ruby.l1_cntrl1.L1Dcache.demand_misses        60228                       # Number of cache demand misses
system.ruby.l1_cntrl1.L1Dcache.demand_accesses       781885                       # Number of cache demand accesses
system.ruby.l1_cntrl1.L1Icache.demand_hits      7993180                       # Number of cache demand hits
system.ruby.l1_cntrl1.L1Icache.demand_misses          237                       # Number of cache demand misses
system.ruby.l1_cntrl1.L1Icache.demand_accesses      7993417                       # Number of cache demand accesses
system.ruby.l1_cntrl1.prefetcher.miss_observed            0                       # number of misses observed
system.ruby.l1_cntrl1.prefetcher.allocated_streams            0                       # number of streams allocated for prefetching
system.ruby.l1_cntrl1.prefetcher.prefetches_requested            0                       # number of prefetch requests made
system.ruby.l1_cntrl1.prefetcher.prefetches_accepted            0                       # number of prefetch requests accepted
system.ruby.l1_cntrl1.prefetcher.dropped_prefetches            0                       # number of prefetch requests dropped
system.ruby.l1_cntrl1.prefetcher.hits               0                       # number of prefetched blocks accessed
system.ruby.l1_cntrl1.prefetcher.partial_hits            0                       # number of misses observed for a block being prefetched
system.ruby.l1_cntrl1.prefetcher.pages_crossed            0                       # number of prefetches across pages
system.ruby.l1_cntrl1.prefetcher.misses_on_prefetched_blocks            0                       # number of misses for blocks that were prefetched, yet missed
system.ruby.l1_cntrl2.L1Dcache.demand_hits       734199                       # Number of cache demand hits
system.ruby.l1_cntrl2.L1Dcache.demand_misses        61444                       # Number of cache demand misses
system.ruby.l1_cntrl2.L1Dcache.demand_accesses       795643                       # Number of cache demand accesses
system.ruby.l1_cntrl2.L1Icache.demand_hits      8020292                       # Number of cache demand hits
system.ruby.l1_cntrl2.L1Icache.demand_misses          239                       # Number of cache demand misses
system.ruby.l1_cntrl2.L1Icache.demand_accesses      8020531                       # Number of cache demand accesses
system.ruby.l1_cntrl2.prefetcher.miss_observed            0                       # number of misses observed
system.ruby.l1_cntrl2.prefetcher.allocated_streams            0                       # number of streams allocated for prefetching
system.ruby.l1_cntrl2.prefetcher.prefetches_requested            0                       # number of prefetch requests made
system.ruby.l1_cntrl2.prefetcher.prefetches_accepted            0                       # number of prefetch requests accepted
system.ruby.l1_cntrl2.prefetcher.dropped_prefetches            0                       # number of prefetch requests dropped
system.ruby.l1_cntrl2.prefetcher.hits               0                       # number of prefetched blocks accessed
system.ruby.l1_cntrl2.prefetcher.partial_hits            0                       # number of misses observed for a block being prefetched
system.ruby.l1_cntrl2.prefetcher.pages_crossed            0                       # number of prefetches across pages
system.ruby.l1_cntrl2.prefetcher.misses_on_prefetched_blocks            0                       # number of misses for blocks that were prefetched, yet missed
system.ruby.l1_cntrl3.L1Dcache.demand_hits       752185                       # Number of cache demand hits
system.ruby.l1_cntrl3.L1Dcache.demand_misses        60858                       # Number of cache demand misses
system.ruby.l1_cntrl3.L1Dcache.demand_accesses       813043                       # Number of cache demand accesses
system.ruby.l1_cntrl3.L1Icache.demand_hits      8061142                       # Number of cache demand hits
system.ruby.l1_cntrl3.L1Icache.demand_misses          224                       # Number of cache demand misses
system.ruby.l1_cntrl3.L1Icache.demand_accesses      8061366                       # Number of cache demand accesses
system.ruby.l1_cntrl3.prefetcher.miss_observed            0                       # number of misses observed
system.ruby.l1_cntrl3.prefetcher.allocated_streams            0                       # number of streams allocated for prefetching
system.ruby.l1_cntrl3.prefetcher.prefetches_requested            0                       # number of prefetch requests made
system.ruby.l1_cntrl3.prefetcher.prefetches_accepted            0                       # number of prefetch requests accepted
system.ruby.l1_cntrl3.prefetcher.dropped_prefetches            0                       # number of prefetch requests dropped
system.ruby.l1_cntrl3.prefetcher.hits               0                       # number of prefetched blocks accessed
system.ruby.l1_cntrl3.prefetcher.partial_hits            0                       # number of misses observed for a block being prefetched
system.ruby.l1_cntrl3.prefetcher.pages_crossed            0                       # number of prefetches across pages
system.ruby.l1_cntrl3.prefetcher.misses_on_prefetched_blocks            0                       # number of misses for blocks that were prefetched, yet missed
system.ruby.l2_cntrl1.L2cache.demand_hits        37843                       # Number of cache demand hits
system.ruby.l2_cntrl1.L2cache.demand_misses        25978                       # Number of cache demand misses
system.ruby.l2_cntrl1.L2cache.demand_accesses        63821                       # Number of cache demand accesses
system.ruby.l2_cntrl0.L2cache.demand_hits        35311                       # Number of cache demand hits
system.ruby.l2_cntrl0.L2cache.demand_misses        25517                       # Number of cache demand misses
system.ruby.l2_cntrl0.L2cache.demand_accesses        60828                       # Number of cache demand accesses
system.ruby.l2_cntrl3.L2cache.demand_hits        35083                       # Number of cache demand hits
system.ruby.l2_cntrl3.L2cache.demand_misses        25272                       # Number of cache demand misses
system.ruby.l2_cntrl3.L2cache.demand_accesses        60355                       # Number of cache demand accesses
system.ruby.l2_cntrl2.L2cache.demand_hits        35008                       # Number of cache demand hits
system.ruby.l2_cntrl2.L2cache.demand_misses        25248                       # Number of cache demand misses
system.ruby.l2_cntrl2.L2cache.demand_accesses        60256                       # Number of cache demand accesses
system.ruby.l1_cntrl8.L1Dcache.demand_hits       749708                       # Number of cache demand hits
system.ruby.l1_cntrl8.L1Dcache.demand_misses        65384                       # Number of cache demand misses
system.ruby.l1_cntrl8.L1Dcache.demand_accesses       815092                       # Number of cache demand accesses
system.ruby.l1_cntrl8.L1Icache.demand_hits      8055121                       # Number of cache demand hits
system.ruby.l1_cntrl8.L1Icache.demand_misses          227                       # Number of cache demand misses
system.ruby.l1_cntrl8.L1Icache.demand_accesses      8055348                       # Number of cache demand accesses
system.ruby.l1_cntrl8.prefetcher.miss_observed            0                       # number of misses observed
system.ruby.l1_cntrl8.prefetcher.allocated_streams            0                       # number of streams allocated for prefetching
system.ruby.l1_cntrl8.prefetcher.prefetches_requested            0                       # number of prefetch requests made
system.ruby.l1_cntrl8.prefetcher.prefetches_accepted            0                       # number of prefetch requests accepted
system.ruby.l1_cntrl8.prefetcher.dropped_prefetches            0                       # number of prefetch requests dropped
system.ruby.l1_cntrl8.prefetcher.hits               0                       # number of prefetched blocks accessed
system.ruby.l1_cntrl8.prefetcher.partial_hits            0                       # number of misses observed for a block being prefetched
system.ruby.l1_cntrl8.prefetcher.pages_crossed            0                       # number of prefetches across pages
system.ruby.l1_cntrl8.prefetcher.misses_on_prefetched_blocks            0                       # number of misses for blocks that were prefetched, yet missed
system.ruby.l1_cntrl9.L1Dcache.demand_hits       790644                       # Number of cache demand hits
system.ruby.l1_cntrl9.L1Dcache.demand_misses        59052                       # Number of cache demand misses
system.ruby.l1_cntrl9.L1Dcache.demand_accesses       849696                       # Number of cache demand accesses
system.ruby.l1_cntrl9.L1Icache.demand_hits      8133898                       # Number of cache demand hits
system.ruby.l1_cntrl9.L1Icache.demand_misses          216                       # Number of cache demand misses
system.ruby.l1_cntrl9.L1Icache.demand_accesses      8134114                       # Number of cache demand accesses
system.ruby.l1_cntrl9.prefetcher.miss_observed            0                       # number of misses observed
system.ruby.l1_cntrl9.prefetcher.allocated_streams            0                       # number of streams allocated for prefetching
system.ruby.l1_cntrl9.prefetcher.prefetches_requested            0                       # number of prefetch requests made
system.ruby.l1_cntrl9.prefetcher.prefetches_accepted            0                       # number of prefetch requests accepted
system.ruby.l1_cntrl9.prefetcher.dropped_prefetches            0                       # number of prefetch requests dropped
system.ruby.l1_cntrl9.prefetcher.hits               0                       # number of prefetched blocks accessed
system.ruby.l1_cntrl9.prefetcher.partial_hits            0                       # number of misses observed for a block being prefetched
system.ruby.l1_cntrl9.prefetcher.pages_crossed            0                       # number of prefetches across pages
system.ruby.l1_cntrl9.prefetcher.misses_on_prefetched_blocks            0                       # number of misses for blocks that were prefetched, yet missed
system.ruby.l2_cntrl7.L2cache.demand_hits        36262                       # Number of cache demand hits
system.ruby.l2_cntrl7.L2cache.demand_misses        25328                       # Number of cache demand misses
system.ruby.l2_cntrl7.L2cache.demand_accesses        61590                       # Number of cache demand accesses
system.ruby.l2_cntrl6.L2cache.demand_hits        36003                       # Number of cache demand hits
system.ruby.l2_cntrl6.L2cache.demand_misses        25358                       # Number of cache demand misses
system.ruby.l2_cntrl6.L2cache.demand_accesses        61361                       # Number of cache demand accesses
system.ruby.l1_cntrl14.L1Dcache.demand_hits       725837                       # Number of cache demand hits
system.ruby.l1_cntrl14.L1Dcache.demand_misses        59053                       # Number of cache demand misses
system.ruby.l1_cntrl14.L1Dcache.demand_accesses       784890                       # Number of cache demand accesses
system.ruby.l1_cntrl14.L1Icache.demand_hits      8012671                       # Number of cache demand hits
system.ruby.l1_cntrl14.L1Icache.demand_misses          220                       # Number of cache demand misses
system.ruby.l1_cntrl14.L1Icache.demand_accesses      8012891                       # Number of cache demand accesses
system.ruby.l1_cntrl14.prefetcher.miss_observed            0                       # number of misses observed
system.ruby.l1_cntrl14.prefetcher.allocated_streams            0                       # number of streams allocated for prefetching
system.ruby.l1_cntrl14.prefetcher.prefetches_requested            0                       # number of prefetch requests made
system.ruby.l1_cntrl14.prefetcher.prefetches_accepted            0                       # number of prefetch requests accepted
system.ruby.l1_cntrl14.prefetcher.dropped_prefetches            0                       # number of prefetch requests dropped
system.ruby.l1_cntrl14.prefetcher.hits              0                       # number of prefetched blocks accessed
system.ruby.l1_cntrl14.prefetcher.partial_hits            0                       # number of misses observed for a block being prefetched
system.ruby.l1_cntrl14.prefetcher.pages_crossed            0                       # number of prefetches across pages
system.ruby.l1_cntrl14.prefetcher.misses_on_prefetched_blocks            0                       # number of misses for blocks that were prefetched, yet missed
system.ruby.l1_cntrl15.L1Dcache.demand_hits       684471                       # Number of cache demand hits
system.ruby.l1_cntrl15.L1Dcache.demand_misses        61074                       # Number of cache demand misses
system.ruby.l1_cntrl15.L1Dcache.demand_accesses       745545                       # Number of cache demand accesses
system.ruby.l1_cntrl15.L1Icache.demand_hits      7947441                       # Number of cache demand hits
system.ruby.l1_cntrl15.L1Icache.demand_misses          230                       # Number of cache demand misses
system.ruby.l1_cntrl15.L1Icache.demand_accesses      7947671                       # Number of cache demand accesses
system.ruby.l1_cntrl15.prefetcher.miss_observed            0                       # number of misses observed
system.ruby.l1_cntrl15.prefetcher.allocated_streams            0                       # number of streams allocated for prefetching
system.ruby.l1_cntrl15.prefetcher.prefetches_requested            0                       # number of prefetch requests made
system.ruby.l1_cntrl15.prefetcher.prefetches_accepted            0                       # number of prefetch requests accepted
system.ruby.l1_cntrl15.prefetcher.dropped_prefetches            0                       # number of prefetch requests dropped
system.ruby.l1_cntrl15.prefetcher.hits              0                       # number of prefetched blocks accessed
system.ruby.l1_cntrl15.prefetcher.partial_hits            0                       # number of misses observed for a block being prefetched
system.ruby.l1_cntrl15.prefetcher.pages_crossed            0                       # number of prefetches across pages
system.ruby.l1_cntrl15.prefetcher.misses_on_prefetched_blocks            0                       # number of misses for blocks that were prefetched, yet missed
system.ruby.l1_cntrl12.L1Dcache.demand_hits       739264                       # Number of cache demand hits
system.ruby.l1_cntrl12.L1Dcache.demand_misses        62235                       # Number of cache demand misses
system.ruby.l1_cntrl12.L1Dcache.demand_accesses       801499                       # Number of cache demand accesses
system.ruby.l1_cntrl12.L1Icache.demand_hits      8033944                       # Number of cache demand hits
system.ruby.l1_cntrl12.L1Icache.demand_misses          227                       # Number of cache demand misses
system.ruby.l1_cntrl12.L1Icache.demand_accesses      8034171                       # Number of cache demand accesses
system.ruby.l1_cntrl12.prefetcher.miss_observed            0                       # number of misses observed
system.ruby.l1_cntrl12.prefetcher.allocated_streams            0                       # number of streams allocated for prefetching
system.ruby.l1_cntrl12.prefetcher.prefetches_requested            0                       # number of prefetch requests made
system.ruby.l1_cntrl12.prefetcher.prefetches_accepted            0                       # number of prefetch requests accepted
system.ruby.l1_cntrl12.prefetcher.dropped_prefetches            0                       # number of prefetch requests dropped
system.ruby.l1_cntrl12.prefetcher.hits              0                       # number of prefetched blocks accessed
system.ruby.l1_cntrl12.prefetcher.partial_hits            0                       # number of misses observed for a block being prefetched
system.ruby.l1_cntrl12.prefetcher.pages_crossed            0                       # number of prefetches across pages
system.ruby.l1_cntrl12.prefetcher.misses_on_prefetched_blocks            0                       # number of misses for blocks that were prefetched, yet missed
system.ruby.l1_cntrl13.L1Dcache.demand_hits       729172                       # Number of cache demand hits
system.ruby.l1_cntrl13.L1Dcache.demand_misses        60719                       # Number of cache demand misses
system.ruby.l1_cntrl13.L1Dcache.demand_accesses       789891                       # Number of cache demand accesses
system.ruby.l1_cntrl13.L1Icache.demand_hits      8016689                       # Number of cache demand hits
system.ruby.l1_cntrl13.L1Icache.demand_misses          236                       # Number of cache demand misses
system.ruby.l1_cntrl13.L1Icache.demand_accesses      8016925                       # Number of cache demand accesses
system.ruby.l1_cntrl13.prefetcher.miss_observed            0                       # number of misses observed
system.ruby.l1_cntrl13.prefetcher.allocated_streams            0                       # number of streams allocated for prefetching
system.ruby.l1_cntrl13.prefetcher.prefetches_requested            0                       # number of prefetch requests made
system.ruby.l1_cntrl13.prefetcher.prefetches_accepted            0                       # number of prefetch requests accepted
system.ruby.l1_cntrl13.prefetcher.dropped_prefetches            0                       # number of prefetch requests dropped
system.ruby.l1_cntrl13.prefetcher.hits              0                       # number of prefetched blocks accessed
system.ruby.l1_cntrl13.prefetcher.partial_hits            0                       # number of misses observed for a block being prefetched
system.ruby.l1_cntrl13.prefetcher.pages_crossed            0                       # number of prefetches across pages
system.ruby.l1_cntrl13.prefetcher.misses_on_prefetched_blocks            0                       # number of misses for blocks that were prefetched, yet missed
system.ruby.l1_cntrl10.L1Dcache.demand_hits       772042                       # Number of cache demand hits
system.ruby.l1_cntrl10.L1Dcache.demand_misses        60846                       # Number of cache demand misses
system.ruby.l1_cntrl10.L1Dcache.demand_accesses       832888                       # Number of cache demand accesses
system.ruby.l1_cntrl10.L1Icache.demand_hits      8099169                       # Number of cache demand hits
system.ruby.l1_cntrl10.L1Icache.demand_misses          240                       # Number of cache demand misses
system.ruby.l1_cntrl10.L1Icache.demand_accesses      8099409                       # Number of cache demand accesses
system.ruby.l1_cntrl10.prefetcher.miss_observed            0                       # number of misses observed
system.ruby.l1_cntrl10.prefetcher.allocated_streams            0                       # number of streams allocated for prefetching
system.ruby.l1_cntrl10.prefetcher.prefetches_requested            0                       # number of prefetch requests made
system.ruby.l1_cntrl10.prefetcher.prefetches_accepted            0                       # number of prefetch requests accepted
system.ruby.l1_cntrl10.prefetcher.dropped_prefetches            0                       # number of prefetch requests dropped
system.ruby.l1_cntrl10.prefetcher.hits              0                       # number of prefetched blocks accessed
system.ruby.l1_cntrl10.prefetcher.partial_hits            0                       # number of misses observed for a block being prefetched
system.ruby.l1_cntrl10.prefetcher.pages_crossed            0                       # number of prefetches across pages
system.ruby.l1_cntrl10.prefetcher.misses_on_prefetched_blocks            0                       # number of misses for blocks that were prefetched, yet missed
system.ruby.l1_cntrl11.L1Dcache.demand_hits       766131                       # Number of cache demand hits
system.ruby.l1_cntrl11.L1Dcache.demand_misses        58879                       # Number of cache demand misses
system.ruby.l1_cntrl11.L1Dcache.demand_accesses       825010                       # Number of cache demand accesses
system.ruby.l1_cntrl11.L1Icache.demand_hits      8088683                       # Number of cache demand hits
system.ruby.l1_cntrl11.L1Icache.demand_misses          219                       # Number of cache demand misses
system.ruby.l1_cntrl11.L1Icache.demand_accesses      8088902                       # Number of cache demand accesses
system.ruby.l1_cntrl11.prefetcher.miss_observed            0                       # number of misses observed
system.ruby.l1_cntrl11.prefetcher.allocated_streams            0                       # number of streams allocated for prefetching
system.ruby.l1_cntrl11.prefetcher.prefetches_requested            0                       # number of prefetch requests made
system.ruby.l1_cntrl11.prefetcher.prefetches_accepted            0                       # number of prefetch requests accepted
system.ruby.l1_cntrl11.prefetcher.dropped_prefetches            0                       # number of prefetch requests dropped
system.ruby.l1_cntrl11.prefetcher.hits              0                       # number of prefetched blocks accessed
system.ruby.l1_cntrl11.prefetcher.partial_hits            0                       # number of misses observed for a block being prefetched
system.ruby.l1_cntrl11.prefetcher.pages_crossed            0                       # number of prefetches across pages
system.ruby.l1_cntrl11.prefetcher.misses_on_prefetched_blocks            0                       # number of misses for blocks that were prefetched, yet missed
system.ruby.l2_cntrl9.L2cache.demand_hits        36669                       # Number of cache demand hits
system.ruby.l2_cntrl9.L2cache.demand_misses        25466                       # Number of cache demand misses
system.ruby.l2_cntrl9.L2cache.demand_accesses        62135                       # Number of cache demand accesses
system.ruby.l2_cntrl8.L2cache.demand_hits        36346                       # Number of cache demand hits
system.ruby.l2_cntrl8.L2cache.demand_misses        25223                       # Number of cache demand misses
system.ruby.l2_cntrl8.L2cache.demand_accesses        61569                       # Number of cache demand accesses
system.ruby.dir_cntrl0.memBuffer.memReq         34051                       # Total number of memory requests
system.ruby.dir_cntrl0.memBuffer.memRead        22644                       # Number of memory reads
system.ruby.dir_cntrl0.memBuffer.memWrite        11407                       # Number of memory writes
system.ruby.dir_cntrl0.memBuffer.memRefresh       133636                       # Number of memory refreshes
system.ruby.dir_cntrl0.memBuffer.memWaitCycles       106896                       # Delay stalled at the head of the bank queue
system.ruby.dir_cntrl0.memBuffer.memInputQ          273                       # Delay in the input queue
system.ruby.dir_cntrl0.memBuffer.memBankQ         3365                       # Delay behind the head of the bank queue
system.ruby.dir_cntrl0.memBuffer.totalStalls       110534                       # Total number of stall cycles
system.ruby.dir_cntrl0.memBuffer.stallsPerReq     3.246131                       # Expected number of stall cycles per request
system.ruby.dir_cntrl0.memBuffer.memBankBusy       104774                       # memory stalls due to busy bank
system.ruby.dir_cntrl0.memBuffer.memBusBusy         1297                       # memory stalls due to busy bus
system.ruby.dir_cntrl0.memBuffer.memReadWriteBusy          238                       # memory stalls due to read write turnaround
system.ruby.dir_cntrl0.memBuffer.memDataBusBusy          165                       # memory stalls due to read read turnaround
system.ruby.dir_cntrl0.memBuffer.memArbWait          422                       # memory stalls due to arbitration
system.ruby.dir_cntrl0.memBuffer.memBankCount |        4362     12.81%     12.81% |           0      0.00%     12.81% |           0      0.00%     12.81% |           0      0.00%     12.81% |        4210     12.36%     25.17% |           0      0.00%     25.17% |           0      0.00%     25.17% |           0      0.00%     25.17% |        4286     12.59%     37.76% |           0      0.00%     37.76% |           0      0.00%     37.76% |           0      0.00%     37.76% |        4182     12.28%     50.04% |           0      0.00%     50.04% |           0      0.00%     50.04% |           0      0.00%     50.04% |        4359     12.80%     62.84% |           0      0.00%     62.84% |           0      0.00%     62.84% |           0      0.00%     62.84% |        4237     12.44%     75.29% |           0      0.00%     75.29% |           0      0.00%     75.29% |           0      0.00%     75.29% |        4277     12.56%     87.85% |           0      0.00%     87.85% |           0      0.00%     87.85% |           0      0.00%     87.85% |        4138     12.15%    100.00% |           0      0.00%    100.00% |           0      0.00%    100.00% |           0      0.00%    100.00% # Number of accesses per bank
system.ruby.dir_cntrl0.memBuffer.memBankCount::total        34051                       # Number of accesses per bank

system.ruby.dir_cntrl1.memBuffer.memReq         34003                       # Total number of memory requests
system.ruby.dir_cntrl1.memBuffer.memRead        22635                       # Number of memory reads
system.ruby.dir_cntrl1.memBuffer.memWrite        11368                       # Number of memory writes
system.ruby.dir_cntrl1.memBuffer.memRefresh       133721                       # Number of memory refreshes
system.ruby.dir_cntrl1.memBuffer.memWaitCycles       108025                       # Delay stalled at the head of the bank queue
system.ruby.dir_cntrl1.memBuffer.memInputQ          280                       # Delay in the input queue
system.ruby.dir_cntrl1.memBuffer.memBankQ         3867                       # Delay behind the head of the bank queue
system.ruby.dir_cntrl1.memBuffer.totalStalls       112172                       # Total number of stall cycles
system.ruby.dir_cntrl1.memBuffer.stallsPerReq     3.298885                       # Expected number of stall cycles per request
system.ruby.dir_cntrl1.memBuffer.memBankBusy       105885                       # memory stalls due to busy bank
system.ruby.dir_cntrl1.memBuffer.memBusBusy         1317                       # memory stalls due to busy bus
system.ruby.dir_cntrl1.memBuffer.memReadWriteBusy          230                       # memory stalls due to read write turnaround
system.ruby.dir_cntrl1.memBuffer.memDataBusBusy          146                       # memory stalls due to read read turnaround
system.ruby.dir_cntrl1.memBuffer.memArbWait          447                       # memory stalls due to arbitration
system.ruby.dir_cntrl1.memBuffer.memBankCount |        4344     12.78%     12.78% |           0      0.00%     12.78% |           0      0.00%     12.78% |           0      0.00%     12.78% |        4192     12.33%     25.10% |           0      0.00%     25.10% |           0      0.00%     25.10% |           0      0.00%     25.10% |        4318     12.70%     37.80% |           0      0.00%     37.80% |           0      0.00%     37.80% |           0      0.00%     37.80% |        4209     12.38%     50.18% |           0      0.00%     50.18% |           0      0.00%     50.18% |           0      0.00%     50.18% |        4325     12.72%     62.90% |           0      0.00%     62.90% |           0      0.00%     62.90% |           0      0.00%     62.90% |        4227     12.43%     75.33% |           0      0.00%     75.33% |           0      0.00%     75.33% |           0      0.00%     75.33% |        4292     12.62%     87.95% |           0      0.00%     87.95% |           0      0.00%     87.95% |           0      0.00%     87.95% |        4096     12.05%    100.00% |           0      0.00%    100.00% |           0      0.00%    100.00% |           0      0.00%    100.00% # Number of accesses per bank
system.ruby.dir_cntrl1.memBuffer.memBankCount::total        34003                       # Number of accesses per bank

system.ruby.dir_cntrl2.memBuffer.memReq         33864                       # Total number of memory requests
system.ruby.dir_cntrl2.memBuffer.memRead        22533                       # Number of memory reads
system.ruby.dir_cntrl2.memBuffer.memWrite        11331                       # Number of memory writes
system.ruby.dir_cntrl2.memBuffer.memRefresh       133295                       # Number of memory refreshes
system.ruby.dir_cntrl2.memBuffer.memWaitCycles       107775                       # Delay stalled at the head of the bank queue
system.ruby.dir_cntrl2.memBuffer.memInputQ          472                       # Delay in the input queue
system.ruby.dir_cntrl2.memBuffer.memBankQ         6955                       # Delay behind the head of the bank queue
system.ruby.dir_cntrl2.memBuffer.totalStalls       115202                       # Total number of stall cycles
system.ruby.dir_cntrl2.memBuffer.stallsPerReq     3.401902                       # Expected number of stall cycles per request
system.ruby.dir_cntrl2.memBuffer.memBankBusy       105584                       # memory stalls due to busy bank
system.ruby.dir_cntrl2.memBuffer.memBusBusy         1310                       # memory stalls due to busy bus
system.ruby.dir_cntrl2.memBuffer.memReadWriteBusy          269                       # memory stalls due to read write turnaround
system.ruby.dir_cntrl2.memBuffer.memDataBusBusy          172                       # memory stalls due to read read turnaround
system.ruby.dir_cntrl2.memBuffer.memArbWait          440                       # memory stalls due to arbitration
system.ruby.dir_cntrl2.memBuffer.memBankCount |        4343     12.82%     12.82% |           0      0.00%     12.82% |           0      0.00%     12.82% |           0      0.00%     12.82% |        4213     12.44%     25.27% |           0      0.00%     25.27% |           0      0.00%     25.27% |           0      0.00%     25.27% |        4318     12.75%     38.02% |           0      0.00%     38.02% |           0      0.00%     38.02% |           0      0.00%     38.02% |        4127     12.19%     50.20% |           0      0.00%     50.20% |           0      0.00%     50.20% |           0      0.00%     50.20% |        4273     12.62%     62.82% |           0      0.00%     62.82% |           0      0.00%     62.82% |           0      0.00%     62.82% |        4246     12.54%     75.36% |           0      0.00%     75.36% |           0      0.00%     75.36% |           0      0.00%     75.36% |        4270     12.61%     87.97% |           0      0.00%     87.97% |           0      0.00%     87.97% |           0      0.00%     87.97% |        4074     12.03%    100.00% |           0      0.00%    100.00% |           0      0.00%    100.00% |           0      0.00%    100.00% # Number of accesses per bank
system.ruby.dir_cntrl2.memBuffer.memBankCount::total        33864                       # Number of accesses per bank

system.ruby.dir_cntrl3.memBuffer.memReq         33931                       # Total number of memory requests
system.ruby.dir_cntrl3.memBuffer.memRead        22573                       # Number of memory reads
system.ruby.dir_cntrl3.memBuffer.memWrite        11358                       # Number of memory writes
system.ruby.dir_cntrl3.memBuffer.memRefresh       133320                       # Number of memory refreshes
system.ruby.dir_cntrl3.memBuffer.memWaitCycles       109012                       # Delay stalled at the head of the bank queue
system.ruby.dir_cntrl3.memBuffer.memInputQ          284                       # Delay in the input queue
system.ruby.dir_cntrl3.memBuffer.memBankQ         3536                       # Delay behind the head of the bank queue
system.ruby.dir_cntrl3.memBuffer.totalStalls       112832                       # Total number of stall cycles
system.ruby.dir_cntrl3.memBuffer.stallsPerReq     3.325337                       # Expected number of stall cycles per request
system.ruby.dir_cntrl3.memBuffer.memBankBusy       106748                       # memory stalls due to busy bank
system.ruby.dir_cntrl3.memBuffer.memBusBusy         1362                       # memory stalls due to busy bus
system.ruby.dir_cntrl3.memBuffer.memReadWriteBusy          317                       # memory stalls due to read write turnaround
system.ruby.dir_cntrl3.memBuffer.memDataBusBusy          130                       # memory stalls due to read read turnaround
system.ruby.dir_cntrl3.memBuffer.memArbWait          455                       # memory stalls due to arbitration
system.ruby.dir_cntrl3.memBuffer.memBankCount |        4303     12.68%     12.68% |           0      0.00%     12.68% |           0      0.00%     12.68% |           0      0.00%     12.68% |        4203     12.39%     25.07% |           0      0.00%     25.07% |           0      0.00%     25.07% |           0      0.00%     25.07% |        4279     12.61%     37.68% |           0      0.00%     37.68% |           0      0.00%     37.68% |           0      0.00%     37.68% |        4136     12.19%     49.87% |           0      0.00%     49.87% |           0      0.00%     49.87% |           0      0.00%     49.87% |        4364     12.86%     62.73% |           0      0.00%     62.73% |           0      0.00%     62.73% |           0      0.00%     62.73% |        4252     12.53%     75.26% |           0      0.00%     75.26% |           0      0.00%     75.26% |           0      0.00%     75.26% |        4310     12.70%     87.96% |           0      0.00%     87.96% |           0      0.00%     87.96% |           0      0.00%     87.96% |        4084     12.04%    100.00% |           0      0.00%    100.00% |           0      0.00%    100.00% |           0      0.00%    100.00% # Number of accesses per bank
system.ruby.dir_cntrl3.memBuffer.memBankCount::total        33931                       # Number of accesses per bank

system.ruby.dir_cntrl4.memBuffer.memReq         33880                       # Total number of memory requests
system.ruby.dir_cntrl4.memBuffer.memRead        22551                       # Number of memory reads
system.ruby.dir_cntrl4.memBuffer.memWrite        11329                       # Number of memory writes
system.ruby.dir_cntrl4.memBuffer.memRefresh       133321                       # Number of memory refreshes
system.ruby.dir_cntrl4.memBuffer.memWaitCycles       109281                       # Delay stalled at the head of the bank queue
system.ruby.dir_cntrl4.memBuffer.memInputQ          301                       # Delay in the input queue
system.ruby.dir_cntrl4.memBuffer.memBankQ         3072                       # Delay behind the head of the bank queue
system.ruby.dir_cntrl4.memBuffer.totalStalls       112654                       # Total number of stall cycles
system.ruby.dir_cntrl4.memBuffer.stallsPerReq     3.325089                       # Expected number of stall cycles per request
system.ruby.dir_cntrl4.memBuffer.memBankBusy       107173                       # memory stalls due to busy bank
system.ruby.dir_cntrl4.memBuffer.memBusBusy         1307                       # memory stalls due to busy bus
system.ruby.dir_cntrl4.memBuffer.memReadWriteBusy          265                       # memory stalls due to read write turnaround
system.ruby.dir_cntrl4.memBuffer.memDataBusBusy          147                       # memory stalls due to read read turnaround
system.ruby.dir_cntrl4.memBuffer.memArbWait          389                       # memory stalls due to arbitration
system.ruby.dir_cntrl4.memBuffer.memBankCount |           0      0.00%      0.00% |        4308     12.72%     12.72% |           0      0.00%     12.72% |           0      0.00%     12.72% |           0      0.00%     12.72% |        4206     12.41%     25.13% |           0      0.00%     25.13% |           0      0.00%     25.13% |           0      0.00%     25.13% |        4243     12.52%     37.65% |           0      0.00%     37.65% |           0      0.00%     37.65% |           0      0.00%     37.65% |        4106     12.12%     49.77% |           0      0.00%     49.77% |           0      0.00%     49.77% |           0      0.00%     49.77% |        4331     12.78%     62.56% |           0      0.00%     62.56% |           0      0.00%     62.56% |           0      0.00%     62.56% |        4309     12.72%     75.27% |           0      0.00%     75.27% |           0      0.00%     75.27% |           0      0.00%     75.27% |        4295     12.68%     87.95% |           0      0.00%     87.95% |           0      0.00%     87.95% |           0      0.00%     87.95% |        4082     12.05%    100.00% |           0      0.00%    100.00% |           0      0.00%    100.00% # Number of accesses per bank
system.ruby.dir_cntrl4.memBuffer.memBankCount::total        33880                       # Number of accesses per bank

system.ruby.dir_cntrl5.memBuffer.memReq         33961                       # Total number of memory requests
system.ruby.dir_cntrl5.memBuffer.memRead        22602                       # Number of memory reads
system.ruby.dir_cntrl5.memBuffer.memWrite        11359                       # Number of memory writes
system.ruby.dir_cntrl5.memBuffer.memRefresh       133200                       # Number of memory refreshes
system.ruby.dir_cntrl5.memBuffer.memWaitCycles       109413                       # Delay stalled at the head of the bank queue
system.ruby.dir_cntrl5.memBuffer.memInputQ          289                       # Delay in the input queue
system.ruby.dir_cntrl5.memBuffer.memBankQ         3598                       # Delay behind the head of the bank queue
system.ruby.dir_cntrl5.memBuffer.totalStalls       113300                       # Total number of stall cycles
system.ruby.dir_cntrl5.memBuffer.stallsPerReq     3.336180                       # Expected number of stall cycles per request
system.ruby.dir_cntrl5.memBuffer.memBankBusy       107410                       # memory stalls due to busy bank
system.ruby.dir_cntrl5.memBuffer.memBusBusy         1245                       # memory stalls due to busy bus
system.ruby.dir_cntrl5.memBuffer.memReadWriteBusy          235                       # memory stalls due to read write turnaround
system.ruby.dir_cntrl5.memBuffer.memDataBusBusy          151                       # memory stalls due to read read turnaround
system.ruby.dir_cntrl5.memBuffer.memArbWait          372                       # memory stalls due to arbitration
system.ruby.dir_cntrl5.memBuffer.memBankCount |           0      0.00%      0.00% |        4328     12.74%     12.74% |           0      0.00%     12.74% |           0      0.00%     12.74% |           0      0.00%     12.74% |        4225     12.44%     25.18% |           0      0.00%     25.18% |           0      0.00%     25.18% |           0      0.00%     25.18% |        4297     12.65%     37.84% |           0      0.00%     37.84% |           0      0.00%     37.84% |           0      0.00%     37.84% |        4117     12.12%     49.96% |           0      0.00%     49.96% |           0      0.00%     49.96% |           0      0.00%     49.96% |        4320     12.72%     62.68% |           0      0.00%     62.68% |           0      0.00%     62.68% |           0      0.00%     62.68% |        4284     12.61%     75.30% |           0      0.00%     75.30% |           0      0.00%     75.30% |           0      0.00%     75.30% |        4260     12.54%     87.84% |           0      0.00%     87.84% |           0      0.00%     87.84% |           0      0.00%     87.84% |        4130     12.16%    100.00% |           0      0.00%    100.00% |           0      0.00%    100.00% # Number of accesses per bank
system.ruby.dir_cntrl5.memBuffer.memBankCount::total        33961                       # Number of accesses per bank

system.ruby.dir_cntrl6.memBuffer.memReq         34077                       # Total number of memory requests
system.ruby.dir_cntrl6.memBuffer.memRead        22687                       # Number of memory reads
system.ruby.dir_cntrl6.memBuffer.memWrite        11390                       # Number of memory writes
system.ruby.dir_cntrl6.memBuffer.memRefresh       133500                       # Number of memory refreshes
system.ruby.dir_cntrl6.memBuffer.memWaitCycles       110725                       # Delay stalled at the head of the bank queue
system.ruby.dir_cntrl6.memBuffer.memInputQ          326                       # Delay in the input queue
system.ruby.dir_cntrl6.memBuffer.memBankQ         3494                       # Delay behind the head of the bank queue
system.ruby.dir_cntrl6.memBuffer.totalStalls       114545                       # Total number of stall cycles
system.ruby.dir_cntrl6.memBuffer.stallsPerReq     3.361358                       # Expected number of stall cycles per request
system.ruby.dir_cntrl6.memBuffer.memBankBusy       108644                       # memory stalls due to busy bank
system.ruby.dir_cntrl6.memBuffer.memBusBusy         1259                       # memory stalls due to busy bus
system.ruby.dir_cntrl6.memBuffer.memReadWriteBusy          299                       # memory stalls due to read write turnaround
system.ruby.dir_cntrl6.memBuffer.memDataBusBusy          143                       # memory stalls due to read read turnaround
system.ruby.dir_cntrl6.memBuffer.memArbWait          380                       # memory stalls due to arbitration
system.ruby.dir_cntrl6.memBuffer.memBankCount |           0      0.00%      0.00% |        4316     12.67%     12.67% |           0      0.00%     12.67% |           0      0.00%     12.67% |           0      0.00%     12.67% |        4222     12.39%     25.06% |           0      0.00%     25.06% |           0      0.00%     25.06% |           0      0.00%     25.06% |        4274     12.54%     37.60% |           0      0.00%     37.60% |           0      0.00%     37.60% |           0      0.00%     37.60% |        4169     12.23%     49.83% |           0      0.00%     49.83% |           0      0.00%     49.83% |           0      0.00%     49.83% |        4311     12.65%     62.48% |           0      0.00%     62.48% |           0      0.00%     62.48% |           0      0.00%     62.48% |        4306     12.64%     75.12% |           0      0.00%     75.12% |           0      0.00%     75.12% |           0      0.00%     75.12% |        4265     12.52%     87.63% |           0      0.00%     87.63% |           0      0.00%     87.63% |           0      0.00%     87.63% |        4214     12.37%    100.00% |           0      0.00%    100.00% |           0      0.00%    100.00% # Number of accesses per bank
system.ruby.dir_cntrl6.memBuffer.memBankCount::total        34077                       # Number of accesses per bank

system.ruby.dir_cntrl7.memBuffer.memReq         34003                       # Total number of memory requests
system.ruby.dir_cntrl7.memBuffer.memRead        22602                       # Number of memory reads
system.ruby.dir_cntrl7.memBuffer.memWrite        11401                       # Number of memory writes
system.ruby.dir_cntrl7.memBuffer.memRefresh       133134                       # Number of memory refreshes
system.ruby.dir_cntrl7.memBuffer.memWaitCycles       111426                       # Delay stalled at the head of the bank queue
system.ruby.dir_cntrl7.memBuffer.memInputQ          287                       # Delay in the input queue
system.ruby.dir_cntrl7.memBuffer.memBankQ         3279                       # Delay behind the head of the bank queue
system.ruby.dir_cntrl7.memBuffer.totalStalls       114992                       # Total number of stall cycles
system.ruby.dir_cntrl7.memBuffer.stallsPerReq     3.381819                       # Expected number of stall cycles per request
system.ruby.dir_cntrl7.memBuffer.memBankBusy       109445                       # memory stalls due to busy bank
system.ruby.dir_cntrl7.memBuffer.memBusBusy         1200                       # memory stalls due to busy bus
system.ruby.dir_cntrl7.memBuffer.memReadWriteBusy          249                       # memory stalls due to read write turnaround
system.ruby.dir_cntrl7.memBuffer.memDataBusBusy          149                       # memory stalls due to read read turnaround
system.ruby.dir_cntrl7.memBuffer.memArbWait          383                       # memory stalls due to arbitration
system.ruby.dir_cntrl7.memBuffer.memBankCount |           0      0.00%      0.00% |        4360     12.82%     12.82% |           0      0.00%     12.82% |           0      0.00%     12.82% |           0      0.00%     12.82% |        4195     12.34%     25.16% |           0      0.00%     25.16% |           0      0.00%     25.16% |           0      0.00%     25.16% |        4248     12.49%     37.65% |           0      0.00%     37.65% |           0      0.00%     37.65% |           0      0.00%     37.65% |        4112     12.09%     49.75% |           0      0.00%     49.75% |           0      0.00%     49.75% |           0      0.00%     49.75% |        4370     12.85%     62.60% |           0      0.00%     62.60% |           0      0.00%     62.60% |           0      0.00%     62.60% |        4307     12.67%     75.26% |           0      0.00%     75.26% |           0      0.00%     75.26% |           0      0.00%     75.26% |        4280     12.59%     87.85% |           0      0.00%     87.85% |           0      0.00%     87.85% |           0      0.00%     87.85% |        4131     12.15%    100.00% |           0      0.00%    100.00% |           0      0.00%    100.00% # Number of accesses per bank
system.ruby.dir_cntrl7.memBuffer.memBankCount::total        34003                       # Number of accesses per bank

system.ruby.dir_cntrl8.memBuffer.memReq         34049                       # Total number of memory requests
system.ruby.dir_cntrl8.memBuffer.memRead        22622                       # Number of memory reads
system.ruby.dir_cntrl8.memBuffer.memWrite        11427                       # Number of memory writes
system.ruby.dir_cntrl8.memBuffer.memRefresh       133208                       # Number of memory refreshes
system.ruby.dir_cntrl8.memBuffer.memWaitCycles       112060                       # Delay stalled at the head of the bank queue
system.ruby.dir_cntrl8.memBuffer.memInputQ          292                       # Delay in the input queue
system.ruby.dir_cntrl8.memBuffer.memBankQ         3528                       # Delay behind the head of the bank queue
system.ruby.dir_cntrl8.memBuffer.totalStalls       115880                       # Total number of stall cycles
system.ruby.dir_cntrl8.memBuffer.stallsPerReq     3.403330                       # Expected number of stall cycles per request
system.ruby.dir_cntrl8.memBuffer.memBankBusy       109871                       # memory stalls due to busy bank
system.ruby.dir_cntrl8.memBuffer.memBusBusy         1310                       # memory stalls due to busy bus
system.ruby.dir_cntrl8.memBuffer.memReadWriteBusy          317                       # memory stalls due to read write turnaround
system.ruby.dir_cntrl8.memBuffer.memDataBusBusy          145                       # memory stalls due to read read turnaround
system.ruby.dir_cntrl8.memBuffer.memArbWait          417                       # memory stalls due to arbitration
system.ruby.dir_cntrl8.memBuffer.memBankCount |           0      0.00%      0.00% |           0      0.00%      0.00% |        4346     12.76%     12.76% |           0      0.00%     12.76% |           0      0.00%     12.76% |           0      0.00%     12.76% |        4261     12.51%     25.28% |           0      0.00%     25.28% |           0      0.00%     25.28% |           0      0.00%     25.28% |        4232     12.43%     37.71% |           0      0.00%     37.71% |           0      0.00%     37.71% |           0      0.00%     37.71% |        4198     12.33%     50.04% |           0      0.00%     50.04% |           0      0.00%     50.04% |           0      0.00%     50.04% |        4316     12.68%     62.71% |           0      0.00%     62.71% |           0      0.00%     62.71% |           0      0.00%     62.71% |        4294     12.61%     75.32% |           0      0.00%     75.32% |           0      0.00%     75.32% |           0      0.00%     75.32% |        4260     12.51%     87.84% |           0      0.00%     87.84% |           0      0.00%     87.84% |           0      0.00%     87.84% |        4142     12.16%    100.00% |           0      0.00%    100.00% # Number of accesses per bank
system.ruby.dir_cntrl8.memBuffer.memBankCount::total        34049                       # Number of accesses per bank

system.ruby.dir_cntrl9.memBuffer.memReq         34311                       # Total number of memory requests
system.ruby.dir_cntrl9.memBuffer.memRead        22790                       # Number of memory reads
system.ruby.dir_cntrl9.memBuffer.memWrite        11521                       # Number of memory writes
system.ruby.dir_cntrl9.memBuffer.memRefresh       133641                       # Number of memory refreshes
system.ruby.dir_cntrl9.memBuffer.memWaitCycles       113703                       # Delay stalled at the head of the bank queue
system.ruby.dir_cntrl9.memBuffer.memInputQ          321                       # Delay in the input queue
system.ruby.dir_cntrl9.memBuffer.memBankQ         3413                       # Delay behind the head of the bank queue
system.ruby.dir_cntrl9.memBuffer.totalStalls       117437                       # Total number of stall cycles
system.ruby.dir_cntrl9.memBuffer.stallsPerReq     3.422722                       # Expected number of stall cycles per request
system.ruby.dir_cntrl9.memBuffer.memBankBusy       111591                       # memory stalls due to busy bank
system.ruby.dir_cntrl9.memBuffer.memBusBusy         1304                       # memory stalls due to busy bus
system.ruby.dir_cntrl9.memBuffer.memReadWriteBusy          280                       # memory stalls due to read write turnaround
system.ruby.dir_cntrl9.memBuffer.memDataBusBusy          135                       # memory stalls due to read read turnaround
system.ruby.dir_cntrl9.memBuffer.memArbWait          393                       # memory stalls due to arbitration
system.ruby.dir_cntrl9.memBuffer.memBankCount |           0      0.00%      0.00% |           0      0.00%      0.00% |        4328     12.61%     12.61% |           0      0.00%     12.61% |           0      0.00%     12.61% |           0      0.00%     12.61% |        4245     12.37%     24.99% |           0      0.00%     24.99% |           0      0.00%     24.99% |           0      0.00%     24.99% |        4247     12.38%     37.36% |           0      0.00%     37.36% |           0      0.00%     37.36% |           0      0.00%     37.36% |        4204     12.25%     49.62% |           0      0.00%     49.62% |           0      0.00%     49.62% |           0      0.00%     49.62% |        4349     12.68%     62.29% |           0      0.00%     62.29% |           0      0.00%     62.29% |           0      0.00%     62.29% |        4480     13.06%     75.35% |           0      0.00%     75.35% |           0      0.00%     75.35% |           0      0.00%     75.35% |        4247     12.38%     87.73% |           0      0.00%     87.73% |           0      0.00%     87.73% |           0      0.00%     87.73% |        4211     12.27%    100.00% |           0      0.00%    100.00% # Number of accesses per bank
system.ruby.dir_cntrl9.memBuffer.memBankCount::total        34311                       # Number of accesses per bank

system.ruby.dir_cntrl10.memBuffer.memReq        34308                       # Total number of memory requests
system.ruby.dir_cntrl10.memBuffer.memRead        22786                       # Number of memory reads
system.ruby.dir_cntrl10.memBuffer.memWrite        11522                       # Number of memory writes
system.ruby.dir_cntrl10.memBuffer.memRefresh       133300                       # Number of memory refreshes
system.ruby.dir_cntrl10.memBuffer.memWaitCycles       113756                       # Delay stalled at the head of the bank queue
system.ruby.dir_cntrl10.memBuffer.memInputQ          287                       # Delay in the input queue
system.ruby.dir_cntrl10.memBuffer.memBankQ         3555                       # Delay behind the head of the bank queue
system.ruby.dir_cntrl10.memBuffer.totalStalls       117598                       # Total number of stall cycles
system.ruby.dir_cntrl10.memBuffer.stallsPerReq     3.427714                       # Expected number of stall cycles per request
system.ruby.dir_cntrl10.memBuffer.memBankBusy       111631                       # memory stalls due to busy bank
system.ruby.dir_cntrl10.memBuffer.memBusBusy         1260                       # memory stalls due to busy bus
system.ruby.dir_cntrl10.memBuffer.memReadWriteBusy          315                       # memory stalls due to read write turnaround
system.ruby.dir_cntrl10.memBuffer.memDataBusBusy          148                       # memory stalls due to read read turnaround
system.ruby.dir_cntrl10.memBuffer.memArbWait          402                       # memory stalls due to arbitration
system.ruby.dir_cntrl10.memBuffer.memBankCount |           0      0.00%      0.00% |           0      0.00%      0.00% |        4293     12.51%     12.51% |           0      0.00%     12.51% |           0      0.00%     12.51% |           0      0.00%     12.51% |        4234     12.34%     24.85% |           0      0.00%     24.85% |           0      0.00%     24.85% |           0      0.00%     24.85% |        4205     12.26%     37.11% |           0      0.00%     37.11% |           0      0.00%     37.11% |           0      0.00%     37.11% |        4290     12.50%     49.62% |           0      0.00%     49.62% |           0      0.00%     49.62% |           0      0.00%     49.62% |        4365     12.72%     62.34% |           0      0.00%     62.34% |           0      0.00%     62.34% |           0      0.00%     62.34% |        4468     13.02%     75.36% |           0      0.00%     75.36% |           0      0.00%     75.36% |           0      0.00%     75.36% |        4211     12.27%     87.64% |           0      0.00%     87.64% |           0      0.00%     87.64% |           0      0.00%     87.64% |        4242     12.36%    100.00% |           0      0.00%    100.00% # Number of accesses per bank
system.ruby.dir_cntrl10.memBuffer.memBankCount::total        34308                       # Number of accesses per bank

system.ruby.dir_cntrl11.memBuffer.memReq        34151                       # Total number of memory requests
system.ruby.dir_cntrl11.memBuffer.memRead        22699                       # Number of memory reads
system.ruby.dir_cntrl11.memBuffer.memWrite        11452                       # Number of memory writes
system.ruby.dir_cntrl11.memBuffer.memRefresh       133940                       # Number of memory refreshes
system.ruby.dir_cntrl11.memBuffer.memWaitCycles       113035                       # Delay stalled at the head of the bank queue
system.ruby.dir_cntrl11.memBuffer.memInputQ          302                       # Delay in the input queue
system.ruby.dir_cntrl11.memBuffer.memBankQ         4801                       # Delay behind the head of the bank queue
system.ruby.dir_cntrl11.memBuffer.totalStalls       118138                       # Total number of stall cycles
system.ruby.dir_cntrl11.memBuffer.stallsPerReq     3.459284                       # Expected number of stall cycles per request
system.ruby.dir_cntrl11.memBuffer.memBankBusy       111002                       # memory stalls due to busy bank
system.ruby.dir_cntrl11.memBuffer.memBusBusy         1261                       # memory stalls due to busy bus
system.ruby.dir_cntrl11.memBuffer.memReadWriteBusy          231                       # memory stalls due to read write turnaround
system.ruby.dir_cntrl11.memBuffer.memDataBusBusy          146                       # memory stalls due to read read turnaround
system.ruby.dir_cntrl11.memBuffer.memArbWait          395                       # memory stalls due to arbitration
system.ruby.dir_cntrl11.memBuffer.memBankCount |           0      0.00%      0.00% |           0      0.00%      0.00% |        4205     12.31%     12.31% |           0      0.00%     12.31% |           0      0.00%     12.31% |           0      0.00%     12.31% |        4206     12.32%     24.63% |           0      0.00%     24.63% |           0      0.00%     24.63% |           0      0.00%     24.63% |        4184     12.25%     36.88% |           0      0.00%     36.88% |           0      0.00%     36.88% |           0      0.00%     36.88% |        4283     12.54%     49.42% |           0      0.00%     49.42% |           0      0.00%     49.42% |           0      0.00%     49.42% |        4398     12.88%     62.30% |           0      0.00%     62.30% |           0      0.00%     62.30% |           0      0.00%     62.30% |        4455     13.05%     75.34% |           0      0.00%     75.34% |           0      0.00%     75.34% |           0      0.00%     75.34% |        4201     12.30%     87.65% |           0      0.00%     87.65% |           0      0.00%     87.65% |           0      0.00%     87.65% |        4219     12.35%    100.00% |           0      0.00%    100.00% # Number of accesses per bank
system.ruby.dir_cntrl11.memBuffer.memBankCount::total        34151                       # Number of accesses per bank

system.ruby.dir_cntrl12.memBuffer.memReq        34159                       # Total number of memory requests
system.ruby.dir_cntrl12.memBuffer.memRead        22710                       # Number of memory reads
system.ruby.dir_cntrl12.memBuffer.memWrite        11449                       # Number of memory writes
system.ruby.dir_cntrl12.memBuffer.memRefresh       133595                       # Number of memory refreshes
system.ruby.dir_cntrl12.memBuffer.memWaitCycles       113965                       # Delay stalled at the head of the bank queue
system.ruby.dir_cntrl12.memBuffer.memInputQ         2254                       # Delay in the input queue
system.ruby.dir_cntrl12.memBuffer.memBankQ        10137                       # Delay behind the head of the bank queue
system.ruby.dir_cntrl12.memBuffer.totalStalls       126356                       # Total number of stall cycles
system.ruby.dir_cntrl12.memBuffer.stallsPerReq     3.699054                       # Expected number of stall cycles per request
system.ruby.dir_cntrl12.memBuffer.memBankBusy       111900                       # memory stalls due to busy bank
system.ruby.dir_cntrl12.memBuffer.memBusBusy         1224                       # memory stalls due to busy bus
system.ruby.dir_cntrl12.memBuffer.memReadWriteBusy          279                       # memory stalls due to read write turnaround
system.ruby.dir_cntrl12.memBuffer.memDataBusBusy          159                       # memory stalls due to read read turnaround
system.ruby.dir_cntrl12.memBuffer.memArbWait          403                       # memory stalls due to arbitration
system.ruby.dir_cntrl12.memBuffer.memBankCount |           0      0.00%      0.00% |           0      0.00%      0.00% |           0      0.00%      0.00% |        4275     12.52%     12.52% |           0      0.00%     12.52% |           0      0.00%     12.52% |           0      0.00%     12.52% |        4221     12.36%     24.87% |           0      0.00%     24.87% |           0      0.00%     24.87% |           0      0.00%     24.87% |        4182     12.24%     37.11% |           0      0.00%     37.11% |           0      0.00%     37.11% |           0      0.00%     37.11% |        4265     12.49%     49.60% |           0      0.00%     49.60% |           0      0.00%     49.60% |           0      0.00%     49.60% |        4370     12.79%     62.39% |           0      0.00%     62.39% |           0      0.00%     62.39% |           0      0.00%     62.39% |        4433     12.98%     75.37% |           0      0.00%     75.37% |           0      0.00%     75.37% |           0      0.00%     75.37% |        4161     12.18%     87.55% |           0      0.00%     87.55% |           0      0.00%     87.55% |           0      0.00%     87.55% |        4252     12.45%    100.00% # Number of accesses per bank
system.ruby.dir_cntrl12.memBuffer.memBankCount::total        34159                       # Number of accesses per bank

system.ruby.dir_cntrl13.memBuffer.memReq        34124                       # Total number of memory requests
system.ruby.dir_cntrl13.memBuffer.memRead        22657                       # Number of memory reads
system.ruby.dir_cntrl13.memBuffer.memWrite        11467                       # Number of memory writes
system.ruby.dir_cntrl13.memBuffer.memRefresh       133140                       # Number of memory refreshes
system.ruby.dir_cntrl13.memBuffer.memWaitCycles       113238                       # Delay stalled at the head of the bank queue
system.ruby.dir_cntrl13.memBuffer.memInputQ          297                       # Delay in the input queue
system.ruby.dir_cntrl13.memBuffer.memBankQ         5439                       # Delay behind the head of the bank queue
system.ruby.dir_cntrl13.memBuffer.totalStalls       118974                       # Total number of stall cycles
system.ruby.dir_cntrl13.memBuffer.stallsPerReq     3.486520                       # Expected number of stall cycles per request
system.ruby.dir_cntrl13.memBuffer.memBankBusy       111053                       # memory stalls due to busy bank
system.ruby.dir_cntrl13.memBuffer.memBusBusy         1278                       # memory stalls due to busy bus
system.ruby.dir_cntrl13.memBuffer.memReadWriteBusy          317                       # memory stalls due to read write turnaround
system.ruby.dir_cntrl13.memBuffer.memDataBusBusy          146                       # memory stalls due to read read turnaround
system.ruby.dir_cntrl13.memBuffer.memArbWait          444                       # memory stalls due to arbitration
system.ruby.dir_cntrl13.memBuffer.memBankCount |           0      0.00%      0.00% |           0      0.00%      0.00% |           0      0.00%      0.00% |        4278     12.54%     12.54% |           0      0.00%     12.54% |           0      0.00%     12.54% |           0      0.00%     12.54% |        4298     12.60%     25.13% |           0      0.00%     25.13% |           0      0.00%     25.13% |           0      0.00%     25.13% |        4143     12.14%     37.27% |           0      0.00%     37.27% |           0      0.00%     37.27% |           0      0.00%     37.27% |        4254     12.47%     49.74% |           0      0.00%     49.74% |           0      0.00%     49.74% |           0      0.00%     49.74% |        4287     12.56%     62.30% |           0      0.00%     62.30% |           0      0.00%     62.30% |           0      0.00%     62.30% |        4435     13.00%     75.30% |           0      0.00%     75.30% |           0      0.00%     75.30% |           0      0.00%     75.30% |        4192     12.28%     87.58% |           0      0.00%     87.58% |           0      0.00%     87.58% |           0      0.00%     87.58% |        4237     12.42%    100.00% # Number of accesses per bank
system.ruby.dir_cntrl13.memBuffer.memBankCount::total        34124                       # Number of accesses per bank

system.ruby.dir_cntrl14.memBuffer.memReq        34076                       # Total number of memory requests
system.ruby.dir_cntrl14.memBuffer.memRead        22617                       # Number of memory reads
system.ruby.dir_cntrl14.memBuffer.memWrite        11459                       # Number of memory writes
system.ruby.dir_cntrl14.memBuffer.memRefresh       132938                       # Number of memory refreshes
system.ruby.dir_cntrl14.memBuffer.memWaitCycles       112993                       # Delay stalled at the head of the bank queue
system.ruby.dir_cntrl14.memBuffer.memInputQ          328                       # Delay in the input queue
system.ruby.dir_cntrl14.memBuffer.memBankQ         5619                       # Delay behind the head of the bank queue
system.ruby.dir_cntrl14.memBuffer.totalStalls       118940                       # Total number of stall cycles
system.ruby.dir_cntrl14.memBuffer.stallsPerReq     3.490433                       # Expected number of stall cycles per request
system.ruby.dir_cntrl14.memBuffer.memBankBusy       110818                       # memory stalls due to busy bank
system.ruby.dir_cntrl14.memBuffer.memBusBusy         1305                       # memory stalls due to busy bus
system.ruby.dir_cntrl14.memBuffer.memReadWriteBusy          290                       # memory stalls due to read write turnaround
system.ruby.dir_cntrl14.memBuffer.memDataBusBusy          125                       # memory stalls due to read read turnaround
system.ruby.dir_cntrl14.memBuffer.memArbWait          455                       # memory stalls due to arbitration
[...]
system.ruby.l2_cntrl0.SS_MB.L1_GETX::total          227                      

system.ruby.l2_cntrl0.SS_MB.L1_UPGRADE   |           0      0.00%      0.00% |         154    100.00%    100.00% |           0      0.00%    100.00% |           0      0.00%    100.00% |           0      0.00%    100.00% |           0      0.00%    100.00% |           0      0.00%    100.00% |           0      0.00%    100.00% |           0      0.00%    100.00% |           0      0.00%    100.00% |           0      0.00%    100.00% |           0      0.00%    100.00% |           0      0.00%    100.00% |           0      0.00%    100.00% |           0      0.00%    100.00% |           0      0.00%    100.00%
system.ruby.l2_cntrl0.SS_MB.L1_UPGRADE::total          154                      

system.ruby.l2_cntrl0.SS_MB.Exclusive_Unblock |         288      7.11%      7.11% |         647     15.98%     23.09% |         283      6.99%     30.07% |         215      5.31%     35.38% |         224      5.53%     40.91% |         252      6.22%     47.14% |         220      5.43%     52.57% |         224      5.53%     58.10% |         223      5.51%     63.60% |         202      4.99%     68.59% |         205      5.06%     73.65% |         215      5.31%     78.96% |         205      5.06%     84.02% |         213      5.26%     89.28% |         204      5.04%     94.32% |         230      5.68%    100.00%
system.ruby.l2_cntrl0.SS_MB.Exclusive_Unblock::total         4050                      

system.ruby.l2_cntrl0.MT_MB.L1_GETS      |           1      0.09%      0.09% |        1118     98.94%     99.03% |           1      0.09%     99.12% |           1      0.09%     99.20% |           0      0.00%     99.20% |           1      0.09%     99.29% |           1      0.09%     99.38% |           0      0.00%     99.38% |           1      0.09%     99.47% |           1      0.09%     99.56% |           0      0.00%     99.56% |           0      0.00%     99.56% |           1      0.09%     99.65% |           1      0.09%     99.73% |           1      0.09%     99.82% |           2      0.18%    100.00%
system.ruby.l2_cntrl0.MT_MB.L1_GETS::total         1130                      

system.ruby.l2_cntrl0.MT_MB.L1_GETX      |           4      0.45%      0.45% |         865     98.07%     98.53% |           1      0.11%     98.64% |           0      0.00%     98.64% |           2      0.23%     98.87% |           3      0.34%     99.21% |           1      0.11%     99.32% |           0      0.00%     99.32% |           1      0.11%     99.43% |           0      0.00%     99.43% |           0      0.00%     99.43% |           1      0.11%     99.55% |           1      0.11%     99.66% |           1      0.11%     99.77% |           2      0.23%    100.00% |           0      0.00%    100.00%
system.ruby.l2_cntrl0.MT_MB.L1_GETX::total          882                      

system.ruby.l2_cntrl0.MT_MB.L1_PUTX      |           2     22.22%     22.22% |           0      0.00%     22.22% |           0      0.00%     22.22% |           0      0.00%     22.22% |           0      0.00%     22.22% |           1     11.11%     33.33% |           0      0.00%     33.33% |           0      0.00%     33.33% |           1     11.11%     44.44% |           0      0.00%     44.44% |           0      0.00%     44.44% |           0      0.00%     44.44% |           1     11.11%     55.56% |           1     11.11%     66.67% |           0      0.00%     66.67% |           3     33.33%    100.00%
system.ruby.l2_cntrl0.MT_MB.L1_PUTX::total            9                      

system.ruby.l2_cntrl0.MT_MB.Exclusive_Unblock |       58953      6.21%      6.21% |       58499      6.16%     12.37% |       58212      6.13%     18.51% |       58564      6.17%     24.67% |       59217      6.24%     30.91% |       59301      6.25%     37.16% |       59671      6.29%     43.45% |       59913      6.31%     49.76% |       59932      6.31%     56.07% |       60548      6.38%     62.45% |       60101      6.33%     68.78% |       59759      6.30%     75.08% |       59339      6.25%     81.33% |       59419      6.26%     87.59% |       58932      6.21%     93.79% |       58907      6.21%    100.00%
system.ruby.l2_cntrl0.MT_MB.Exclusive_Unblock::total       949267                      

system.ruby.l2_cntrl0.MT_IIB.L1_GETS     |           8      0.24%      0.24% |        2923     89.22%     89.47% |         218      6.65%     96.12% |           3      0.09%     96.21% |           3      0.09%     96.31% |           3      0.09%     96.40% |           0      0.00%     96.40% |           2      0.06%     96.46% |          18      0.55%     97.01% |          20      0.61%     97.62% |          13      0.40%     98.02% |          14      0.43%     98.44% |          14      0.43%     98.87% |          13      0.40%     99.27% |          13      0.40%     99.66% |          11      0.34%    100.00%
system.ruby.l2_cntrl0.MT_IIB.L1_GETS::total         3276                      

system.ruby.l2_cntrl0.MT_IIB.L1_GETX     |           0      0.00%      0.00% |         231    100.00%    100.00% |           0      0.00%    100.00% |           0      0.00%    100.00% |           0      0.00%    100.00% |           0      0.00%    100.00% |           0      0.00%    100.00% |           0      0.00%    100.00% |           0      0.00%    100.00% |           0      0.00%    100.00% |           0      0.00%    100.00% |           0      0.00%    100.00% |           0      0.00%    100.00% |           0      0.00%    100.00% |           0      0.00%    100.00% |           0      0.00%    100.00%
system.ruby.l2_cntrl0.MT_IIB.L1_GETX::total          231                      

system.ruby.l2_cntrl0.MT_IIB.WB_Data     |         495      8.36%      8.36% |         649     10.96%     19.31% |         500      8.44%     27.75% |         472      7.97%     35.72% |         421      7.11%     42.83% |         432      7.29%     50.12% |         395      6.67%     56.79% |         409      6.90%     63.69% |         339      5.72%     69.41% |         331      5.59%     75.00% |         304      5.13%     80.13% |         298      5.03%     85.16% |         261      4.41%     89.57% |         227      3.83%     93.40% |         226      3.81%     97.21% |         165      2.79%    100.00%
system.ruby.l2_cntrl0.MT_IIB.WB_Data::total         5924                      

system.ruby.l2_cntrl0.MT_IIB.WB_Data_clean |           1     20.00%     20.00% |           0      0.00%     20.00% |           0      0.00%     20.00% |           1     20.00%     40.00% |           0      0.00%     40.00% |           0      0.00%     40.00% |           1     20.00%     60.00% |           1     20.00%     80.00% |           1     20.00%    100.00% |           0      0.00%    100.00% |           0      0.00%    100.00% |           0      0.00%    100.00% |           0      0.00%    100.00% |           0      0.00%    100.00% |           0      0.00%    100.00% |           0      0.00%    100.00%
system.ruby.l2_cntrl0.MT_IIB.WB_Data_clean::total            5                      

system.ruby.l2_cntrl0.MT_IIB.Unblock     |         206      4.62%      4.62% |         404      9.06%     13.69% |         193      4.33%     18.02% |         139      3.12%     21.14% |         198      4.44%     25.58% |         207      4.64%     30.22% |         219      4.91%     35.14% |         212      4.76%     39.89% |         277      6.21%     46.11% |         260      5.83%     51.94% |         295      6.62%     58.56% |         308      6.91%     65.47% |         334      7.49%     72.96% |         378      8.48%     81.44% |         372      8.35%     89.79% |         455     10.21%    100.00%
system.ruby.l2_cntrl0.MT_IIB.Unblock::total         4457                      

system.ruby.l2_cntrl0.MT_IB.L1_GETS      |           1     16.67%     16.67% |           4     66.67%     83.33% |           1     16.67%    100.00% |           0      0.00%    100.00% |           0      0.00%    100.00% |           0      0.00%    100.00% |           0      0.00%    100.00% |           0      0.00%    100.00% |           0      0.00%    100.00% |           0      0.00%    100.00% |           0      0.00%    100.00% |           0      0.00%    100.00% |           0      0.00%    100.00% |           0      0.00%    100.00% |           0      0.00%    100.00% |           0      0.00%    100.00%
system.ruby.l2_cntrl0.MT_IB.L1_GETS::total            6                      

system.ruby.l2_cntrl0.MT_IB.L1_UPGRADE   |           0      0.00%      0.00% |           3    100.00%    100.00% |           0      0.00%    100.00% |           0      0.00%    100.00% |           0      0.00%    100.00% |           0      0.00%    100.00% |           0      0.00%    100.00% |           0      0.00%    100.00% |           0      0.00%    100.00% |           0      0.00%    100.00% |           0      0.00%    100.00% |           0      0.00%    100.00% |           0      0.00%    100.00% |           0      0.00%    100.00% |           0      0.00%    100.00% |           0      0.00%    100.00%
system.ruby.l2_cntrl0.MT_IB.L1_UPGRADE::total            3                      

system.ruby.l2_cntrl0.MT_IB.WB_Data      |         206      4.63%      4.63% |         404      9.08%     13.71% |         193      4.34%     18.05% |         136      3.06%     21.11% |         197      4.43%     25.54% |         206      4.63%     30.17% |         219      4.92%     35.09% |         212      4.77%     39.86% |         276      6.21%     46.07% |         260      5.85%     51.91% |         294      6.61%     58.52% |         307      6.90%     65.42% |         334      7.51%     72.93% |         378      8.50%     81.43% |         372      8.36%     89.79% |         454     10.21%    100.00%
system.ruby.l2_cntrl0.MT_IB.WB_Data::total         4448                      

system.ruby.l2_cntrl0.MT_IB.WB_Data_clean |           0      0.00%      0.00% |           0      0.00%      0.00% |           0      0.00%      0.00% |           3     33.33%     33.33% |           1     11.11%     44.44% |           1     11.11%     55.56% |           0      0.00%     55.56% |           0      0.00%     55.56% |           1     11.11%     66.67% |           0      0.00%     66.67% |           1     11.11%     77.78% |           1     11.11%     88.89% |           0      0.00%     88.89% |           0      0.00%     88.89% |           0      0.00%     88.89% |           1     11.11%    100.00%
system.ruby.l2_cntrl0.MT_IB.WB_Data_clean::total            9                      

system.ruby.l2_cntrl0.MT_SB.L1_GETS      |          11      7.86%      7.86% |          84     60.00%     67.86% |           6      4.29%     72.14% |           0      0.00%     72.14% |           4      2.86%     75.00% |           9      6.43%     81.43% |           9      6.43%     87.86% |           9      6.43%     94.29% |           1      0.71%     95.00% |           0      0.00%     95.00% |           1      0.71%     95.71% |           0      0.00%     95.71% |           1      0.71%     96.43% |           0      0.00%     96.43% |           0      0.00%     96.43% |           5      3.57%    100.00%
system.ruby.l2_cntrl0.MT_SB.L1_GETS::total          140                      

system.ruby.l2_cntrl0.MT_SB.L1_UPGRADE   |           0      0.00%      0.00% |          25     46.30%     46.30% |           0      0.00%     46.30% |           0      0.00%     46.30% |           1      1.85%     48.15% |           6     11.11%     59.26% |           2      3.70%     62.96% |           2      3.70%     66.67% |           4      7.41%     74.07% |           3      5.56%     79.63% |           0      0.00%     79.63% |           2      3.70%     83.33% |           3      5.56%     88.89% |           2      3.70%     92.59% |           3      5.56%     98.15% |           1      1.85%    100.00%
system.ruby.l2_cntrl0.MT_SB.L1_UPGRADE::total           54                      

system.ruby.l2_cntrl0.MT_SB.Unblock      |         496      8.37%      8.37% |         649     10.95%     19.31% |         500      8.43%     27.74% |         473      7.98%     35.72% |         421      7.10%     42.82% |         432      7.29%     50.11% |         396      6.68%     56.79% |         410      6.92%     63.70% |         340      5.73%     69.44% |         331      5.58%     75.02% |         304      5.13%     80.15% |         298      5.03%     85.17% |         261      4.40%     89.58% |         227      3.83%     93.41% |         226      3.81%     97.22% |         165      2.78%    100.00%
system.ruby.l2_cntrl0.MT_SB.Unblock::total         5929                      

system.ruby.dir_cntrl0.Fetch             |       22644      6.25%      6.25% |       22635      6.25%     12.49% |       22533      6.22%     18.71% |       22573      6.23%     24.94% |       22551      6.22%     31.16% |       22602      6.24%     37.40% |       22687      6.26%     43.66% |       22602      6.24%     49.90% |       22622      6.24%     56.14% |       22790      6.29%     62.43% |       22786      6.29%     68.71% |       22699      6.26%     74.98% |       22710      6.27%     81.24% |       22657      6.25%     87.49% |       22617      6.24%     93.74% |       22703      6.26%    100.00%
system.ruby.dir_cntrl0.Fetch::total            362411                      

system.ruby.dir_cntrl0.Data              |       11407      6.24%      6.24% |       11368      6.22%     12.47% |       11331      6.20%     18.67% |       11358      6.22%     24.88% |       11329      6.20%     31.08% |       11359      6.22%     37.30% |       11390      6.23%     43.54% |       11401      6.24%     49.78% |       11427      6.25%     56.03% |       11521      6.31%     62.33% |       11522      6.31%     68.64% |       11452      6.27%     74.91% |       11449      6.27%     81.18% |       11467      6.28%     87.45% |       11459      6.27%     93.72% |       11468      6.28%    100.00%
system.ruby.dir_cntrl0.Data::total             182708                      

system.ruby.dir_cntrl0.Memory_Data       |       22644      6.25%      6.25% |       22635      6.25%     12.49% |       22533      6.22%     18.71% |       22573      6.23%     24.94% |       22551      6.22%     31.16% |       22602      6.24%     37.40% |       22687      6.26%     43.66% |       22602      6.24%     49.90% |       22622      6.24%     56.14% |       22790      6.29%     62.43% |       22786      6.29%     68.71% |       22699      6.26%     74.98% |       22710      6.27%     81.24% |       22657      6.25%     87.49% |       22617      6.24%     93.74% |       22703      6.26%    100.00%
system.ruby.dir_cntrl0.Memory_Data::total       362411                      

system.ruby.dir_cntrl0.Memory_Ack        |       11407      6.24%      6.24% |       11368      6.22%     12.47% |       11331      6.20%     18.67% |       11358      6.22%     24.88% |       11329      6.20%     31.08% |       11359      6.22%     37.30% |       11390      6.23%     43.54% |       11401      6.24%     49.78% |       11427      6.25%     56.03% |       11521      6.31%     62.33% |       11522      6.31%     68.64% |       11452      6.27%     74.91% |       11449      6.27%     81.18% |       11467      6.28%     87.45% |       11459      6.27%     93.72% |       11468      6.28%    100.00%
system.ruby.dir_cntrl0.Memory_Ack::total       182708                      

system.ruby.dir_cntrl0.CleanReplacement  |        7141      6.25%      6.25% |        7171      6.28%     12.54% |        7106      6.22%     18.76% |        7119      6.24%     25.00% |        7126      6.24%     31.24% |        7147      6.26%     37.50% |        7201      6.31%     43.81% |        7105      6.22%     50.03% |        7099      6.22%     56.25% |        7173      6.28%     62.53% |        7168      6.28%     68.81% |        7151      6.26%     75.07% |        7165      6.28%     81.35% |        7094      6.21%     87.56% |        7062      6.19%     93.75% |        7139      6.25%    100.00%
system.ruby.dir_cntrl0.CleanReplacement::total       114167                      

system.ruby.dir_cntrl0.I.Fetch           |       22644      6.25%      6.25% |       22635      6.25%     12.49% |       22533      6.22%     18.71% |       22573      6.23%     24.94% |       22551      6.22%     31.16% |       22602      6.24%     37.40% |       22687      6.26%     43.66% |       22602      6.24%     49.90% |       22622      6.24%     56.14% |       22790      6.29%     62.43% |       22786      6.29%     68.71% |       22699      6.26%     74.98% |       22710      6.27%     81.24% |       22657      6.25%     87.49% |       22617      6.24%     93.74% |       22703      6.26%    100.00%
system.ruby.dir_cntrl0.I.Fetch::total          362411                      

system.ruby.dir_cntrl0.M.Data            |       11407      6.24%      6.24% |       11368      6.22%     12.47% |       11331      6.20%     18.67% |       11358      6.22%     24.88% |       11329      6.20%     31.08% |       11359      6.22%     37.30% |       11390      6.23%     43.54% |       11401      6.24%     49.78% |       11427      6.25%     56.03% |       11521      6.31%     62.33% |       11522      6.31%     68.64% |       11452      6.27%     74.91% |       11449      6.27%     81.18% |       11467      6.28%     87.45% |       11459      6.27%     93.72% |       11468      6.28%    100.00%
system.ruby.dir_cntrl0.M.Data::total           182708                      

system.ruby.dir_cntrl0.M.CleanReplacement |        7141      6.25%      6.25% |        7171      6.28%     12.54% |        7106      6.22%     18.76% |        7119      6.24%     25.00% |        7126      6.24%     31.24% |        7147      6.26%     37.50% |        7201      6.31%     43.81% |        7105      6.22%     50.03% |        7099      6.22%     56.25% |        7173      6.28%     62.53% |        7168      6.28%     68.81% |        7151      6.26%     75.07% |        7165      6.28%     81.35% |        7094      6.21%     87.56% |        7062      6.19%     93.75% |        7139      6.25%    100.00%
system.ruby.dir_cntrl0.M.CleanReplacement::total       114167                      

system.ruby.dir_cntrl0.IM.Memory_Data    |       22644      6.25%      6.25% |       22635      6.25%     12.49% |       22533      6.22%     18.71% |       22573      6.23%     24.94% |       22551      6.22%     31.16% |       22602      6.24%     37.40% |       22687      6.26%     43.66% |       22602      6.24%     49.90% |       22622      6.24%     56.14% |       22790      6.29%     62.43% |       22786      6.29%     68.71% |       22699      6.26%     74.98% |       22710      6.27%     81.24% |       22657      6.25%     87.49% |       22617      6.24%     93.74% |       22703      6.26%    100.00%
system.ruby.dir_cntrl0.IM.Memory_Data::total       362411                      

system.ruby.dir_cntrl0.MI.Memory_Ack     |       11407      6.24%      6.24% |       11368      6.22%     12.47% |       11331      6.20%     18.67% |       11358      6.22%     24.88% |       11329      6.20%     31.08% |       11359      6.22%     37.30% |       11390      6.23%     43.54% |       11401      6.24%     49.78% |       11427      6.25%     56.03% |       11521      6.31%     62.33% |       11522      6.31%     68.64% |       11452      6.27%     74.91% |       11449      6.27%     81.18% |       11467      6.28%     87.45% |       11459      6.27%     93.72% |       11468      6.28%    100.00%
system.ruby.dir_cntrl0.MI.Memory_Ack::total       182708                      


---------- End Simulation Statistics   ----------
