
---------- Begin Simulation Statistics ----------
sim_seconds                                  0.018819                       # Number of seconds simulated
sim_ticks                                 18819400000                       # Number of ticks simulated
final_tick                                18819400000                       # Number of ticks from beginning of simulation (restored from checkpoints and never reset)
sim_freq                                 1000000000000                       # Frequency of simulated ticks
host_inst_rate                                 158553                       # Simulator instruction rate (inst/s)
host_op_rate                                   158553                       # Simulator op (including micro ops) rate (op/s)
host_tick_rate                               51151858                       # Simulator tick rate (ticks/s)
host_mem_usage                                 370284                       # Number of bytes of host memory used
host_seconds                                   367.91                       # Real time elapsed on the host
sim_insts                                    58333490                       # Number of instructions simulated
sim_ops                                      58333490                       # Number of ops (including micro ops) simulated
system.physmem.bytes_read::cpu0.inst           174912                       # Number of bytes read from this memory
system.physmem.bytes_read::cpu0.data          5486336                       # Number of bytes read from this memory
system.physmem.bytes_read::cpu1.inst            21184                       # Number of bytes read from this memory
system.physmem.bytes_read::cpu1.data          3170176                       # Number of bytes read from this memory
system.physmem.bytes_read::cpu2.inst            10112                       # Number of bytes read from this memory
system.physmem.bytes_read::cpu2.data          3166080                       # Number of bytes read from this memory
system.physmem.bytes_read::cpu3.inst             5376                       # Number of bytes read from this memory
system.physmem.bytes_read::cpu3.data          3164736                       # Number of bytes read from this memory
system.physmem.bytes_read::total             15198912                       # Number of bytes read from this memory
system.physmem.bytes_inst_read::cpu0.inst       174912                       # Number of instructions bytes read from this memory
system.physmem.bytes_inst_read::cpu1.inst        21184                       # Number of instructions bytes read from this memory
system.physmem.bytes_inst_read::cpu2.inst        10112                       # Number of instructions bytes read from this memory
system.physmem.bytes_inst_read::cpu3.inst         5376                       # Number of instructions bytes read from this memory
system.physmem.bytes_inst_read::total          211584                       # Number of instructions bytes read from this memory
system.physmem.bytes_written::writebacks      7335104                       # Number of bytes written to this memory
system.physmem.bytes_written::total           7335104                       # Number of bytes written to this memory
system.physmem.num_reads::cpu0.inst              2733                       # Number of read requests responded to by this memory
system.physmem.num_reads::cpu0.data             85724                       # Number of read requests responded to by this memory
system.physmem.num_reads::cpu1.inst               331                       # Number of read requests responded to by this memory
system.physmem.num_reads::cpu1.data             49534                       # Number of read requests responded to by this memory
system.physmem.num_reads::cpu2.inst               158                       # Number of read requests responded to by this memory
system.physmem.num_reads::cpu2.data             49470                       # Number of read requests responded to by this memory
system.physmem.num_reads::cpu3.inst                84                       # Number of read requests responded to by this memory
system.physmem.num_reads::cpu3.data             49449                       # Number of read requests responded to by this memory
system.physmem.num_reads::total                237483                       # Number of read requests responded to by this memory
system.physmem.num_writes::writebacks          114611                       # Number of write requests responded to by this memory
system.physmem.num_writes::total               114611                       # Number of write requests responded to by this memory
system.physmem.bw_read::cpu0.inst             9294239                       # Total read bandwidth from this memory (bytes/s)
system.physmem.bw_read::cpu0.data           291525553                       # Total read bandwidth from this memory (bytes/s)
system.physmem.bw_read::cpu1.inst             1125647                       # Total read bandwidth from this memory (bytes/s)
system.physmem.bw_read::cpu1.data           168452554                       # Total read bandwidth from this memory (bytes/s)
system.physmem.bw_read::cpu2.inst              537318                       # Total read bandwidth from this memory (bytes/s)
system.physmem.bw_read::cpu2.data           168234907                       # Total read bandwidth from this memory (bytes/s)
system.physmem.bw_read::cpu3.inst              285663                       # Total read bandwidth from this memory (bytes/s)
system.physmem.bw_read::cpu3.data           168163491                       # Total read bandwidth from this memory (bytes/s)
system.physmem.bw_read::total               807619371                       # Total read bandwidth from this memory (bytes/s)
system.physmem.bw_inst_read::cpu0.inst        9294239                       # Instruction read bandwidth from this memory (bytes/s)
system.physmem.bw_inst_read::cpu1.inst        1125647                       # Instruction read bandwidth from this memory (bytes/s)
system.physmem.bw_inst_read::cpu2.inst         537318                       # Instruction read bandwidth from this memory (bytes/s)
system.physmem.bw_inst_read::cpu3.inst         285663                       # Instruction read bandwidth from this memory (bytes/s)
system.physmem.bw_inst_read::total           11242866                       # Instruction read bandwidth from this memory (bytes/s)
system.physmem.bw_write::writebacks         389762904                       # Write bandwidth from this memory (bytes/s)
system.physmem.bw_write::total              389762904                       # Write bandwidth from this memory (bytes/s)
system.physmem.bw_total::writebacks         389762904                       # Total bandwidth to/from this memory (bytes/s)
system.physmem.bw_total::cpu0.inst            9294239                       # Total bandwidth to/from this memory (bytes/s)
system.physmem.bw_total::cpu0.data          291525553                       # Total bandwidth to/from this memory (bytes/s)
system.physmem.bw_total::cpu1.inst            1125647                       # Total bandwidth to/from this memory (bytes/s)
system.physmem.bw_total::cpu1.data          168452554                       # Total bandwidth to/from this memory (bytes/s)
system.physmem.bw_total::cpu2.inst             537318                       # Total bandwidth to/from this memory (bytes/s)
system.physmem.bw_total::cpu2.data          168234907                       # Total bandwidth to/from this memory (bytes/s)
system.physmem.bw_total::cpu3.inst             285663                       # Total bandwidth to/from this memory (bytes/s)
system.physmem.bw_total::cpu3.data          168163491                       # Total bandwidth to/from this memory (bytes/s)
system.physmem.bw_total::total             1197382276                       # Total bandwidth to/from this memory (bytes/s)
workload.num_syscalls                             247                       # Number of system calls
system.l2.replacements                         238370                       # number of replacements
system.l2.tagsinuse                       2389.858401                       # Cycle average of tags in use
system.l2.total_refs                            35381                       # Total number of references to valid blocks.
system.l2.sampled_refs                         241435                       # Sample count of references to valid blocks.
system.l2.avg_refs                           0.146545                       # Average number of references to valid blocks.
system.l2.warmup_cycle                    15506800000                       # Cycle when the warmup percentage was hit.
system.l2.occ_blocks::writebacks          1721.115480                       # Average occupied blocks per requestor
system.l2.occ_blocks::cpu0.inst             80.728723                       # Average occupied blocks per requestor
system.l2.occ_blocks::cpu0.data            171.937788                       # Average occupied blocks per requestor
system.l2.occ_blocks::cpu1.inst              1.124330                       # Average occupied blocks per requestor
system.l2.occ_blocks::cpu1.data            133.188948                       # Average occupied blocks per requestor
system.l2.occ_blocks::cpu2.inst              0.523431                       # Average occupied blocks per requestor
system.l2.occ_blocks::cpu2.data            141.338265                       # Average occupied blocks per requestor
system.l2.occ_blocks::cpu3.inst              0.181637                       # Average occupied blocks per requestor
system.l2.occ_blocks::cpu3.data            139.719799                       # Average occupied blocks per requestor
system.l2.occ_percent::writebacks            0.420194                       # Average percentage of cache occupancy
system.l2.occ_percent::cpu0.inst             0.019709                       # Average percentage of cache occupancy
system.l2.occ_percent::cpu0.data             0.041977                       # Average percentage of cache occupancy
system.l2.occ_percent::cpu1.inst             0.000274                       # Average percentage of cache occupancy
system.l2.occ_percent::cpu1.data             0.032517                       # Average percentage of cache occupancy
system.l2.occ_percent::cpu2.inst             0.000128                       # Average percentage of cache occupancy
system.l2.occ_percent::cpu2.data             0.034506                       # Average percentage of cache occupancy
system.l2.occ_percent::cpu3.inst             0.000044                       # Average percentage of cache occupancy
system.l2.occ_percent::cpu3.data             0.034111                       # Average percentage of cache occupancy
system.l2.occ_percent::total                 0.583462                       # Average percentage of cache occupancy
system.l2.ReadReq_hits::cpu0.inst                3403                       # number of ReadReq hits
system.l2.ReadReq_hits::cpu0.data                 597                       # number of ReadReq hits
system.l2.ReadReq_hits::cpu1.inst                 775                       # number of ReadReq hits
system.l2.ReadReq_hits::cpu1.data                 297                       # number of ReadReq hits
system.l2.ReadReq_hits::cpu2.inst                 753                       # number of ReadReq hits
system.l2.ReadReq_hits::cpu2.data                 467                       # number of ReadReq hits
system.l2.ReadReq_hits::cpu3.inst                 617                       # number of ReadReq hits
system.l2.ReadReq_hits::cpu3.data                 345                       # number of ReadReq hits
system.l2.ReadReq_hits::total                    7254                       # number of ReadReq hits
system.l2.Writeback_hits::writebacks           116731                       # number of Writeback hits
system.l2.Writeback_hits::total                116731                       # number of Writeback hits
system.l2.UpgradeReq_hits::cpu0.data                4                       # number of UpgradeReq hits
system.l2.UpgradeReq_hits::cpu1.data                2                       # number of UpgradeReq hits
system.l2.UpgradeReq_hits::cpu2.data                2                       # number of UpgradeReq hits
system.l2.UpgradeReq_hits::cpu3.data                1                       # number of UpgradeReq hits
system.l2.UpgradeReq_hits::total                    9                       # number of UpgradeReq hits
system.l2.SCUpgradeReq_hits::cpu0.data              1                       # number of SCUpgradeReq hits
system.l2.SCUpgradeReq_hits::cpu2.data              2                       # number of SCUpgradeReq hits
system.l2.SCUpgradeReq_hits::cpu3.data              3                       # number of SCUpgradeReq hits
system.l2.SCUpgradeReq_hits::total                  6                       # number of SCUpgradeReq hits
system.l2.ReadExReq_hits::cpu0.data                66                       # number of ReadExReq hits
system.l2.ReadExReq_hits::cpu1.data                34                       # number of ReadExReq hits
system.l2.ReadExReq_hits::cpu2.data                25                       # number of ReadExReq hits
system.l2.ReadExReq_hits::cpu3.data                 9                       # number of ReadExReq hits
system.l2.ReadExReq_hits::total                   134                       # number of ReadExReq hits
system.l2.demand_hits::cpu0.inst                 3403                       # number of demand (read+write) hits
system.l2.demand_hits::cpu0.data                  663                       # number of demand (read+write) hits
system.l2.demand_hits::cpu1.inst                  775                       # number of demand (read+write) hits
system.l2.demand_hits::cpu1.data                  331                       # number of demand (read+write) hits
system.l2.demand_hits::cpu2.inst                  753                       # number of demand (read+write) hits
system.l2.demand_hits::cpu2.data                  492                       # number of demand (read+write) hits
system.l2.demand_hits::cpu3.inst                  617                       # number of demand (read+write) hits
system.l2.demand_hits::cpu3.data                  354                       # number of demand (read+write) hits
system.l2.demand_hits::total                     7388                       # number of demand (read+write) hits
system.l2.overall_hits::cpu0.inst                3403                       # number of overall hits
system.l2.overall_hits::cpu0.data                 663                       # number of overall hits
system.l2.overall_hits::cpu1.inst                 775                       # number of overall hits
system.l2.overall_hits::cpu1.data                 331                       # number of overall hits
system.l2.overall_hits::cpu2.inst                 753                       # number of overall hits
system.l2.overall_hits::cpu2.data                 492                       # number of overall hits
system.l2.overall_hits::cpu3.inst                 617                       # number of overall hits
system.l2.overall_hits::cpu3.data                 354                       # number of overall hits
system.l2.overall_hits::total                    7388                       # number of overall hits
system.l2.ReadReq_misses::cpu0.inst              2745                       # number of ReadReq misses
system.l2.ReadReq_misses::cpu0.data             38235                       # number of ReadReq misses
system.l2.ReadReq_misses::cpu1.inst               364                       # number of ReadReq misses
system.l2.ReadReq_misses::cpu1.data             37169                       # number of ReadReq misses
system.l2.ReadReq_misses::cpu2.inst               206                       # number of ReadReq misses
system.l2.ReadReq_misses::cpu2.data             37118                       # number of ReadReq misses
system.l2.ReadReq_misses::cpu3.inst               112                       # number of ReadReq misses
system.l2.ReadReq_misses::cpu3.data             37081                       # number of ReadReq misses
system.l2.ReadReq_misses::total                153030                       # number of ReadReq misses
system.l2.UpgradeReq_misses::cpu0.data              6                       # number of UpgradeReq misses
system.l2.UpgradeReq_misses::cpu1.data              2                       # number of UpgradeReq misses
system.l2.UpgradeReq_misses::total                  8                       # number of UpgradeReq misses
system.l2.SCUpgradeReq_misses::cpu0.data            4                       # number of SCUpgradeReq misses
system.l2.SCUpgradeReq_misses::cpu1.data            1                       # number of SCUpgradeReq misses
system.l2.SCUpgradeReq_misses::cpu2.data            1                       # number of SCUpgradeReq misses
system.l2.SCUpgradeReq_misses::cpu3.data            2                       # number of SCUpgradeReq misses
system.l2.SCUpgradeReq_misses::total                8                       # number of SCUpgradeReq misses
system.l2.ReadExReq_misses::cpu0.data           47506                       # number of ReadExReq misses
system.l2.ReadExReq_misses::cpu1.data           12380                       # number of ReadExReq misses
system.l2.ReadExReq_misses::cpu2.data           12376                       # number of ReadExReq misses
system.l2.ReadExReq_misses::cpu3.data           12383                       # number of ReadExReq misses
system.l2.ReadExReq_misses::total               84645                       # number of ReadExReq misses
system.l2.demand_misses::cpu0.inst               2745                       # number of demand (read+write) misses
system.l2.demand_misses::cpu0.data              85741                       # number of demand (read+write) misses
system.l2.demand_misses::cpu1.inst                364                       # number of demand (read+write) misses
system.l2.demand_misses::cpu1.data              49549                       # number of demand (read+write) misses
system.l2.demand_misses::cpu2.inst                206                       # number of demand (read+write) misses
system.l2.demand_misses::cpu2.data              49494                       # number of demand (read+write) misses
system.l2.demand_misses::cpu3.inst                112                       # number of demand (read+write) misses
system.l2.demand_misses::cpu3.data              49464                       # number of demand (read+write) misses
system.l2.demand_misses::total                 237675                       # number of demand (read+write) misses
system.l2.overall_misses::cpu0.inst              2745                       # number of overall misses
system.l2.overall_misses::cpu0.data             85741                       # number of overall misses
system.l2.overall_misses::cpu1.inst               364                       # number of overall misses
system.l2.overall_misses::cpu1.data             49549                       # number of overall misses
system.l2.overall_misses::cpu2.inst               206                       # number of overall misses
system.l2.overall_misses::cpu2.data             49494                       # number of overall misses
system.l2.overall_misses::cpu3.inst               112                       # number of overall misses
system.l2.overall_misses::cpu3.data             49464                       # number of overall misses
system.l2.overall_misses::total                237675                       # number of overall misses
system.l2.ReadReq_miss_latency::cpu0.inst    142781000                       # number of ReadReq miss cycles
system.l2.ReadReq_miss_latency::cpu0.data   2018761000                       # number of ReadReq miss cycles
system.l2.ReadReq_miss_latency::cpu1.inst     18810000                       # number of ReadReq miss cycles
system.l2.ReadReq_miss_latency::cpu1.data   1963352000                       # number of ReadReq miss cycles
system.l2.ReadReq_miss_latency::cpu2.inst     10404000                       # number of ReadReq miss cycles
system.l2.ReadReq_miss_latency::cpu2.data   1960319000                       # number of ReadReq miss cycles
system.l2.ReadReq_miss_latency::cpu3.inst      5463000                       # number of ReadReq miss cycles
system.l2.ReadReq_miss_latency::cpu3.data   1958602000                       # number of ReadReq miss cycles
system.l2.ReadReq_miss_latency::total      8078492000                       # number of ReadReq miss cycles
system.l2.UpgradeReq_miss_latency::cpu0.data        52000                       # number of UpgradeReq miss cycles
system.l2.UpgradeReq_miss_latency::cpu1.data        53000                       # number of UpgradeReq miss cycles
system.l2.UpgradeReq_miss_latency::total       105000                       # number of UpgradeReq miss cycles
system.l2.ReadExReq_miss_latency::cpu0.data   2515973000                       # number of ReadExReq miss cycles
system.l2.ReadExReq_miss_latency::cpu1.data    672642000                       # number of ReadExReq miss cycles
system.l2.ReadExReq_miss_latency::cpu2.data    694541000                       # number of ReadExReq miss cycles
system.l2.ReadExReq_miss_latency::cpu3.data    689595000                       # number of ReadExReq miss cycles
system.l2.ReadExReq_miss_latency::total    4572751000                       # number of ReadExReq miss cycles
system.l2.demand_miss_latency::cpu0.inst    142781000                       # number of demand (read+write) miss cycles
system.l2.demand_miss_latency::cpu0.data   4534734000                       # number of demand (read+write) miss cycles
system.l2.demand_miss_latency::cpu1.inst     18810000                       # number of demand (read+write) miss cycles
system.l2.demand_miss_latency::cpu1.data   2635994000                       # number of demand (read+write) miss cycles
system.l2.demand_miss_latency::cpu2.inst     10404000                       # number of demand (read+write) miss cycles
system.l2.demand_miss_latency::cpu2.data   2654860000                       # number of demand (read+write) miss cycles
system.l2.demand_miss_latency::cpu3.inst      5463000                       # number of demand (read+write) miss cycles
system.l2.demand_miss_latency::cpu3.data   2648197000                       # number of demand (read+write) miss cycles
system.l2.demand_miss_latency::total      12651243000                       # number of demand (read+write) miss cycles
system.l2.overall_miss_latency::cpu0.inst    142781000                       # number of overall miss cycles
system.l2.overall_miss_latency::cpu0.data   4534734000                       # number of overall miss cycles
system.l2.overall_miss_latency::cpu1.inst     18810000                       # number of overall miss cycles
system.l2.overall_miss_latency::cpu1.data   2635994000                       # number of overall miss cycles
system.l2.overall_miss_latency::cpu2.inst     10404000                       # number of overall miss cycles
system.l2.overall_miss_latency::cpu2.data   2654860000                       # number of overall miss cycles
system.l2.overall_miss_latency::cpu3.inst      5463000                       # number of overall miss cycles
system.l2.overall_miss_latency::cpu3.data   2648197000                       # number of overall miss cycles
system.l2.overall_miss_latency::total     12651243000                       # number of overall miss cycles
system.l2.ReadReq_accesses::cpu0.inst            6148                       # number of ReadReq accesses(hits+misses)
system.l2.ReadReq_accesses::cpu0.data           38832                       # number of ReadReq accesses(hits+misses)
system.l2.ReadReq_accesses::cpu1.inst            1139                       # number of ReadReq accesses(hits+misses)
system.l2.ReadReq_accesses::cpu1.data           37466                       # number of ReadReq accesses(hits+misses)
system.l2.ReadReq_accesses::cpu2.inst             959                       # number of ReadReq accesses(hits+misses)
system.l2.ReadReq_accesses::cpu2.data           37585                       # number of ReadReq accesses(hits+misses)
system.l2.ReadReq_accesses::cpu3.inst             729                       # number of ReadReq accesses(hits+misses)
system.l2.ReadReq_accesses::cpu3.data           37426                       # number of ReadReq accesses(hits+misses)
system.l2.ReadReq_accesses::total              160284                       # number of ReadReq accesses(hits+misses)
system.l2.Writeback_accesses::writebacks       116731                       # number of Writeback accesses(hits+misses)
system.l2.Writeback_accesses::total            116731                       # number of Writeback accesses(hits+misses)
system.l2.UpgradeReq_accesses::cpu0.data           10                       # number of UpgradeReq accesses(hits+misses)
system.l2.UpgradeReq_accesses::cpu1.data            4                       # number of UpgradeReq accesses(hits+misses)
system.l2.UpgradeReq_accesses::cpu2.data            2                       # number of UpgradeReq accesses(hits+misses)
system.l2.UpgradeReq_accesses::cpu3.data            1                       # number of UpgradeReq accesses(hits+misses)
system.l2.UpgradeReq_accesses::total               17                       # number of UpgradeReq accesses(hits+misses)
system.l2.SCUpgradeReq_accesses::cpu0.data            5                       # number of SCUpgradeReq accesses(hits+misses)
system.l2.SCUpgradeReq_accesses::cpu1.data            1                       # number of SCUpgradeReq accesses(hits+misses)
system.l2.SCUpgradeReq_accesses::cpu2.data            3                       # number of SCUpgradeReq accesses(hits+misses)
system.l2.SCUpgradeReq_accesses::cpu3.data            5                       # number of SCUpgradeReq accesses(hits+misses)
system.l2.SCUpgradeReq_accesses::total             14                       # number of SCUpgradeReq accesses(hits+misses)
system.l2.ReadExReq_accesses::cpu0.data         47572                       # number of ReadExReq accesses(hits+misses)
system.l2.ReadExReq_accesses::cpu1.data         12414                       # number of ReadExReq accesses(hits+misses)
system.l2.ReadExReq_accesses::cpu2.data         12401                       # number of ReadExReq accesses(hits+misses)
system.l2.ReadExReq_accesses::cpu3.data         12392                       # number of ReadExReq accesses(hits+misses)
system.l2.ReadExReq_accesses::total             84779                       # number of ReadExReq accesses(hits+misses)
system.l2.demand_accesses::cpu0.inst             6148                       # number of demand (read+write) accesses
system.l2.demand_accesses::cpu0.data            86404                       # number of demand (read+write) accesses
system.l2.demand_accesses::cpu1.inst             1139                       # number of demand (read+write) accesses
system.l2.demand_accesses::cpu1.data            49880                       # number of demand (read+write) accesses
system.l2.demand_accesses::cpu2.inst              959                       # number of demand (read+write) accesses
system.l2.demand_accesses::cpu2.data            49986                       # number of demand (read+write) accesses
system.l2.demand_accesses::cpu3.inst              729                       # number of demand (read+write) accesses
system.l2.demand_accesses::cpu3.data            49818                       # number of demand (read+write) accesses
system.l2.demand_accesses::total               245063                       # number of demand (read+write) accesses
system.l2.overall_accesses::cpu0.inst            6148                       # number of overall (read+write) accesses
system.l2.overall_accesses::cpu0.data           86404                       # number of overall (read+write) accesses
system.l2.overall_accesses::cpu1.inst            1139                       # number of overall (read+write) accesses
system.l2.overall_accesses::cpu1.data           49880                       # number of overall (read+write) accesses
system.l2.overall_accesses::cpu2.inst             959                       # number of overall (read+write) accesses
system.l2.overall_accesses::cpu2.data           49986                       # number of overall (read+write) accesses
system.l2.overall_accesses::cpu3.inst             729                       # number of overall (read+write) accesses
system.l2.overall_accesses::cpu3.data           49818                       # number of overall (read+write) accesses
system.l2.overall_accesses::total              245063                       # number of overall (read+write) accesses
system.l2.ReadReq_miss_rate::cpu0.inst       0.446487                       # miss rate for ReadReq accesses
system.l2.ReadReq_miss_rate::cpu0.data       0.984626                       # miss rate for ReadReq accesses
system.l2.ReadReq_miss_rate::cpu1.inst       0.319579                       # miss rate for ReadReq accesses
system.l2.ReadReq_miss_rate::cpu1.data       0.992073                       # miss rate for ReadReq accesses
system.l2.ReadReq_miss_rate::cpu2.inst       0.214807                       # miss rate for ReadReq accesses
system.l2.ReadReq_miss_rate::cpu2.data       0.987575                       # miss rate for ReadReq accesses
system.l2.ReadReq_miss_rate::cpu3.inst       0.153635                       # miss rate for ReadReq accesses
system.l2.ReadReq_miss_rate::cpu3.data       0.990782                       # miss rate for ReadReq accesses
system.l2.ReadReq_miss_rate::total           0.954743                       # miss rate for ReadReq accesses
system.l2.UpgradeReq_miss_rate::cpu0.data     0.600000                       # miss rate for UpgradeReq accesses
system.l2.UpgradeReq_miss_rate::cpu1.data     0.500000                       # miss rate for UpgradeReq accesses
system.l2.UpgradeReq_miss_rate::total        0.470588                       # miss rate for UpgradeReq accesses
system.l2.SCUpgradeReq_miss_rate::cpu0.data     0.800000                       # miss rate for SCUpgradeReq accesses
system.l2.SCUpgradeReq_miss_rate::cpu1.data            1                       # miss rate for SCUpgradeReq accesses
system.l2.SCUpgradeReq_miss_rate::cpu2.data     0.333333                       # miss rate for SCUpgradeReq accesses
system.l2.SCUpgradeReq_miss_rate::cpu3.data     0.400000                       # miss rate for SCUpgradeReq accesses
system.l2.SCUpgradeReq_miss_rate::total      0.571429                       # miss rate for SCUpgradeReq accesses
system.l2.ReadExReq_miss_rate::cpu0.data     0.998613                       # miss rate for ReadExReq accesses
system.l2.ReadExReq_miss_rate::cpu1.data     0.997261                       # miss rate for ReadExReq accesses
system.l2.ReadExReq_miss_rate::cpu2.data     0.997984                       # miss rate for ReadExReq accesses
system.l2.ReadExReq_miss_rate::cpu3.data     0.999274                       # miss rate for ReadExReq accesses
system.l2.ReadExReq_miss_rate::total         0.998419                       # miss rate for ReadExReq accesses
system.l2.demand_miss_rate::cpu0.inst        0.446487                       # miss rate for demand accesses
system.l2.demand_miss_rate::cpu0.data        0.992327                       # miss rate for demand accesses
system.l2.demand_miss_rate::cpu1.inst        0.319579                       # miss rate for demand accesses
system.l2.demand_miss_rate::cpu1.data        0.993364                       # miss rate for demand accesses
system.l2.demand_miss_rate::cpu2.inst        0.214807                       # miss rate for demand accesses
system.l2.demand_miss_rate::cpu2.data        0.990157                       # miss rate for demand accesses
system.l2.demand_miss_rate::cpu3.inst        0.153635                       # miss rate for demand accesses
system.l2.demand_miss_rate::cpu3.data        0.992894                       # miss rate for demand accesses
system.l2.demand_miss_rate::total            0.969853                       # miss rate for demand accesses
system.l2.overall_miss_rate::cpu0.inst       0.446487                       # miss rate for overall accesses
system.l2.overall_miss_rate::cpu0.data       0.992327                       # miss rate for overall accesses
system.l2.overall_miss_rate::cpu1.inst       0.319579                       # miss rate for overall accesses
system.l2.overall_miss_rate::cpu1.data       0.993364                       # miss rate for overall accesses
system.l2.overall_miss_rate::cpu2.inst       0.214807                       # miss rate for overall accesses
system.l2.overall_miss_rate::cpu2.data       0.990157                       # miss rate for overall accesses
system.l2.overall_miss_rate::cpu3.inst       0.153635                       # miss rate for overall accesses
system.l2.overall_miss_rate::cpu3.data       0.992894                       # miss rate for overall accesses
system.l2.overall_miss_rate::total           0.969853                       # miss rate for overall accesses
system.l2.ReadReq_avg_miss_latency::cpu0.inst 52014.936248                       # average ReadReq miss latency
system.l2.ReadReq_avg_miss_latency::cpu0.data 52798.770760                       # average ReadReq miss latency
system.l2.ReadReq_avg_miss_latency::cpu1.inst 51675.824176                       # average ReadReq miss latency
system.l2.ReadReq_avg_miss_latency::cpu1.data 52822.298152                       # average ReadReq miss latency
system.l2.ReadReq_avg_miss_latency::cpu2.inst 50504.854369                       # average ReadReq miss latency
system.l2.ReadReq_avg_miss_latency::cpu2.data 52813.163425                       # average ReadReq miss latency
system.l2.ReadReq_avg_miss_latency::cpu3.inst 48776.785714                       # average ReadReq miss latency
system.l2.ReadReq_avg_miss_latency::cpu3.data 52819.557186                       # average ReadReq miss latency
system.l2.ReadReq_avg_miss_latency::total 52790.250278                       # average ReadReq miss latency
system.l2.UpgradeReq_avg_miss_latency::cpu0.data  8666.666667                       # average UpgradeReq miss latency
system.l2.UpgradeReq_avg_miss_latency::cpu1.data        26500                       # average UpgradeReq miss latency
system.l2.UpgradeReq_avg_miss_latency::total        13125                       # average UpgradeReq miss latency
system.l2.ReadExReq_avg_miss_latency::cpu0.data 52961.162800                       # average ReadExReq miss latency
system.l2.ReadExReq_avg_miss_latency::cpu1.data 54332.956381                       # average ReadExReq miss latency
system.l2.ReadExReq_avg_miss_latency::cpu2.data 56119.990304                       # average ReadExReq miss latency
system.l2.ReadExReq_avg_miss_latency::cpu3.data 55688.847614                       # average ReadExReq miss latency
system.l2.ReadExReq_avg_miss_latency::total 54022.694784                       # average ReadExReq miss latency
system.l2.demand_avg_miss_latency::cpu0.inst 52014.936248                       # average overall miss latency
system.l2.demand_avg_miss_latency::cpu0.data 52888.746341                       # average overall miss latency
system.l2.demand_avg_miss_latency::cpu1.inst 51675.824176                       # average overall miss latency
system.l2.demand_avg_miss_latency::cpu1.data 53199.741670                       # average overall miss latency
system.l2.demand_avg_miss_latency::cpu2.inst 50504.854369                       # average overall miss latency
system.l2.demand_avg_miss_latency::cpu2.data 53640.037176                       # average overall miss latency
system.l2.demand_avg_miss_latency::cpu3.inst 48776.785714                       # average overall miss latency
system.l2.demand_avg_miss_latency::cpu3.data 53537.865923                       # average overall miss latency
system.l2.demand_avg_miss_latency::total 53229.170085                       # average overall miss latency
system.l2.overall_avg_miss_latency::cpu0.inst 52014.936248                       # average overall miss latency
system.l2.overall_avg_miss_latency::cpu0.data 52888.746341                       # average overall miss latency
system.l2.overall_avg_miss_latency::cpu1.inst 51675.824176                       # average overall miss latency
system.l2.overall_avg_miss_latency::cpu1.data 53199.741670                       # average overall miss latency
system.l2.overall_avg_miss_latency::cpu2.inst 50504.854369                       # average overall miss latency
system.l2.overall_avg_miss_latency::cpu2.data 53640.037176                       # average overall miss latency
system.l2.overall_avg_miss_latency::cpu3.inst 48776.785714                       # average overall miss latency
system.l2.overall_avg_miss_latency::cpu3.data 53537.865923                       # average overall miss latency
system.l2.overall_avg_miss_latency::total 53229.170085                       # average overall miss latency
system.l2.blocked_cycles::no_mshrs                  0                       # number of cycles access was blocked
system.l2.blocked_cycles::no_targets                0                       # number of cycles access was blocked
system.l2.blocked::no_mshrs                         0                       # number of cycles access was blocked
system.l2.blocked::no_targets                       0                       # number of cycles access was blocked
system.l2.avg_blocked_cycles::no_mshrs            nan                       # average number of cycles each access was blocked
system.l2.avg_blocked_cycles::no_targets          nan                       # average number of cycles each access was blocked
system.l2.fast_writes                               0                       # number of fast writes performed
system.l2.cache_copies                              0                       # number of cache copies performed
system.l2.writebacks::writebacks               114611                       # number of writebacks
system.l2.writebacks::total                    114611                       # number of writebacks
system.l2.ReadReq_mshr_hits::cpu0.inst             12                       # number of ReadReq MSHR hits
system.l2.ReadReq_mshr_hits::cpu0.data             16                       # number of ReadReq MSHR hits
system.l2.ReadReq_mshr_hits::cpu1.inst             33                       # number of ReadReq MSHR hits
system.l2.ReadReq_mshr_hits::cpu1.data             15                       # number of ReadReq MSHR hits
system.l2.ReadReq_mshr_hits::cpu2.inst             48                       # number of ReadReq MSHR hits
system.l2.ReadReq_mshr_hits::cpu2.data             24                       # number of ReadReq MSHR hits
system.l2.ReadReq_mshr_hits::cpu3.inst             28                       # number of ReadReq MSHR hits
system.l2.ReadReq_mshr_hits::cpu3.data             15                       # number of ReadReq MSHR hits
system.l2.ReadReq_mshr_hits::total                191                       # number of ReadReq MSHR hits
system.l2.demand_mshr_hits::cpu0.inst              12                       # number of demand (read+write) MSHR hits
system.l2.demand_mshr_hits::cpu0.data              16                       # number of demand (read+write) MSHR hits
system.l2.demand_mshr_hits::cpu1.inst              33                       # number of demand (read+write) MSHR hits
system.l2.demand_mshr_hits::cpu1.data              15                       # number of demand (read+write) MSHR hits
system.l2.demand_mshr_hits::cpu2.inst              48                       # number of demand (read+write) MSHR hits
system.l2.demand_mshr_hits::cpu2.data              24                       # number of demand (read+write) MSHR hits
system.l2.demand_mshr_hits::cpu3.inst              28                       # number of demand (read+write) MSHR hits
system.l2.demand_mshr_hits::cpu3.data              15                       # number of demand (read+write) MSHR hits
system.l2.demand_mshr_hits::total                 191                       # number of demand (read+write) MSHR hits
system.l2.overall_mshr_hits::cpu0.inst             12                       # number of overall MSHR hits
system.l2.overall_mshr_hits::cpu0.data             16                       # number of overall MSHR hits
system.l2.overall_mshr_hits::cpu1.inst             33                       # number of overall MSHR hits
system.l2.overall_mshr_hits::cpu1.data             15                       # number of overall MSHR hits
system.l2.overall_mshr_hits::cpu2.inst             48                       # number of overall MSHR hits
system.l2.overall_mshr_hits::cpu2.data             24                       # number of overall MSHR hits
system.l2.overall_mshr_hits::cpu3.inst             28                       # number of overall MSHR hits
system.l2.overall_mshr_hits::cpu3.data             15                       # number of overall MSHR hits
system.l2.overall_mshr_hits::total                191                       # number of overall MSHR hits
system.l2.ReadReq_mshr_misses::cpu0.inst         2733                       # number of ReadReq MSHR misses
system.l2.ReadReq_mshr_misses::cpu0.data        38219                       # number of ReadReq MSHR misses
system.l2.ReadReq_mshr_misses::cpu1.inst          331                       # number of ReadReq MSHR misses
system.l2.ReadReq_mshr_misses::cpu1.data        37154                       # number of ReadReq MSHR misses
system.l2.ReadReq_mshr_misses::cpu2.inst          158                       # number of ReadReq MSHR misses
system.l2.ReadReq_mshr_misses::cpu2.data        37094                       # number of ReadReq MSHR misses
system.l2.ReadReq_mshr_misses::cpu3.inst           84                       # number of ReadReq MSHR misses
system.l2.ReadReq_mshr_misses::cpu3.data        37066                       # number of ReadReq MSHR misses
system.l2.ReadReq_mshr_misses::total           152839                       # number of ReadReq MSHR misses
system.l2.UpgradeReq_mshr_misses::cpu0.data            6                       # number of UpgradeReq MSHR misses
system.l2.UpgradeReq_mshr_misses::cpu1.data            2                       # number of UpgradeReq MSHR misses
system.l2.UpgradeReq_mshr_misses::total             8                       # number of UpgradeReq MSHR misses
system.l2.SCUpgradeReq_mshr_misses::cpu0.data            4                       # number of SCUpgradeReq MSHR misses
system.l2.SCUpgradeReq_mshr_misses::cpu1.data            1                       # number of SCUpgradeReq MSHR misses
system.l2.SCUpgradeReq_mshr_misses::cpu2.data            1                       # number of SCUpgradeReq MSHR misses
system.l2.SCUpgradeReq_mshr_misses::cpu3.data            2                       # number of SCUpgradeReq MSHR misses
system.l2.SCUpgradeReq_mshr_misses::total            8                       # number of SCUpgradeReq MSHR misses
system.l2.ReadExReq_mshr_misses::cpu0.data        47506                       # number of ReadExReq MSHR misses
system.l2.ReadExReq_mshr_misses::cpu1.data        12380                       # number of ReadExReq MSHR misses
system.l2.ReadExReq_mshr_misses::cpu2.data        12376                       # number of ReadExReq MSHR misses
system.l2.ReadExReq_mshr_misses::cpu3.data        12383                       # number of ReadExReq MSHR misses
system.l2.ReadExReq_mshr_misses::total          84645                       # number of ReadExReq MSHR misses
system.l2.demand_mshr_misses::cpu0.inst          2733                       # number of demand (read+write) MSHR misses
system.l2.demand_mshr_misses::cpu0.data         85725                       # number of demand (read+write) MSHR misses
system.l2.demand_mshr_misses::cpu1.inst           331                       # number of demand (read+write) MSHR misses
system.l2.demand_mshr_misses::cpu1.data         49534                       # number of demand (read+write) MSHR misses
system.l2.demand_mshr_misses::cpu2.inst           158                       # number of demand (read+write) MSHR misses
system.l2.demand_mshr_misses::cpu2.data         49470                       # number of demand (read+write) MSHR misses
system.l2.demand_mshr_misses::cpu3.inst            84                       # number of demand (read+write) MSHR misses
system.l2.demand_mshr_misses::cpu3.data         49449                       # number of demand (read+write) MSHR misses
system.l2.demand_mshr_misses::total            237484                       # number of demand (read+write) MSHR misses
system.l2.overall_mshr_misses::cpu0.inst         2733                       # number of overall MSHR misses
system.l2.overall_mshr_misses::cpu0.data        85725                       # number of overall MSHR misses
system.l2.overall_mshr_misses::cpu1.inst          331                       # number of overall MSHR misses
system.l2.overall_mshr_misses::cpu1.data        49534                       # number of overall MSHR misses
system.l2.overall_mshr_misses::cpu2.inst          158                       # number of overall MSHR misses
system.l2.overall_mshr_misses::cpu2.data        49470                       # number of overall MSHR misses
system.l2.overall_mshr_misses::cpu3.inst           84                       # number of overall MSHR misses
system.l2.overall_mshr_misses::cpu3.data        49449                       # number of overall MSHR misses
system.l2.overall_mshr_misses::total           237484                       # number of overall MSHR misses
system.l2.ReadReq_mshr_miss_latency::cpu0.inst    109494000                       # number of ReadReq MSHR miss cycles
system.l2.ReadReq_mshr_miss_latency::cpu0.data   1559451000                       # number of ReadReq MSHR miss cycles
system.l2.ReadReq_mshr_miss_latency::cpu1.inst     13315000                       # number of ReadReq MSHR miss cycles
system.l2.ReadReq_mshr_miss_latency::cpu1.data   1516917000                       # number of ReadReq MSHR miss cycles
system.l2.ReadReq_mshr_miss_latency::cpu2.inst      6393000                       # number of ReadReq MSHR miss cycles
system.l2.ReadReq_mshr_miss_latency::cpu2.data   1514250000                       # number of ReadReq MSHR miss cycles
system.l2.ReadReq_mshr_miss_latency::cpu3.inst      3389000                       # number of ReadReq MSHR miss cycles
system.l2.ReadReq_mshr_miss_latency::cpu3.data   1513118000                       # number of ReadReq MSHR miss cycles
system.l2.ReadReq_mshr_miss_latency::total   6236327000                       # number of ReadReq MSHR miss cycles
system.l2.UpgradeReq_mshr_miss_latency::cpu0.data       240000                       # number of UpgradeReq MSHR miss cycles
system.l2.UpgradeReq_mshr_miss_latency::cpu1.data        81000                       # number of UpgradeReq MSHR miss cycles
system.l2.UpgradeReq_mshr_miss_latency::total       321000                       # number of UpgradeReq MSHR miss cycles
system.l2.SCUpgradeReq_mshr_miss_latency::cpu0.data       160000                       # number of SCUpgradeReq MSHR miss cycles
system.l2.SCUpgradeReq_mshr_miss_latency::cpu1.data        40000                       # number of SCUpgradeReq MSHR miss cycles
system.l2.SCUpgradeReq_mshr_miss_latency::cpu2.data        40000                       # number of SCUpgradeReq MSHR miss cycles
system.l2.SCUpgradeReq_mshr_miss_latency::cpu3.data        80000                       # number of SCUpgradeReq MSHR miss cycles
system.l2.SCUpgradeReq_mshr_miss_latency::total       320000                       # number of SCUpgradeReq MSHR miss cycles
system.l2.ReadExReq_mshr_miss_latency::cpu0.data   1945901000                       # number of ReadExReq MSHR miss cycles
system.l2.ReadExReq_mshr_miss_latency::cpu1.data    524082000                       # number of ReadExReq MSHR miss cycles
system.l2.ReadExReq_mshr_miss_latency::cpu2.data    546029000                       # number of ReadExReq MSHR miss cycles
system.l2.ReadExReq_mshr_miss_latency::cpu3.data    540999000                       # number of ReadExReq MSHR miss cycles
system.l2.ReadExReq_mshr_miss_latency::total   3557011000                       # number of ReadExReq MSHR miss cycles
system.l2.demand_mshr_miss_latency::cpu0.inst    109494000                       # number of demand (read+write) MSHR miss cycles
system.l2.demand_mshr_miss_latency::cpu0.data   3505352000                       # number of demand (read+write) MSHR miss cycles
system.l2.demand_mshr_miss_latency::cpu1.inst     13315000                       # number of demand (read+write) MSHR miss cycles
system.l2.demand_mshr_miss_latency::cpu1.data   2040999000                       # number of demand (read+write) MSHR miss cycles
system.l2.demand_mshr_miss_latency::cpu2.inst      6393000                       # number of demand (read+write) MSHR miss cycles
system.l2.demand_mshr_miss_latency::cpu2.data   2060279000                       # number of demand (read+write) MSHR miss cycles
system.l2.demand_mshr_miss_latency::cpu3.inst      3389000                       # number of demand (read+write) MSHR miss cycles
system.l2.demand_mshr_miss_latency::cpu3.data   2054117000                       # number of demand (read+write) MSHR miss cycles
system.l2.demand_mshr_miss_latency::total   9793338000                       # number of demand (read+write) MSHR miss cycles
system.l2.overall_mshr_miss_latency::cpu0.inst    109494000                       # number of overall MSHR miss cycles
system.l2.overall_mshr_miss_latency::cpu0.data   3505352000                       # number of overall MSHR miss cycles
system.l2.overall_mshr_miss_latency::cpu1.inst     13315000                       # number of overall MSHR miss cycles
system.l2.overall_mshr_miss_latency::cpu1.data   2040999000                       # number of overall MSHR miss cycles
system.l2.overall_mshr_miss_latency::cpu2.inst      6393000                       # number of overall MSHR miss cycles
system.l2.overall_mshr_miss_latency::cpu2.data   2060279000                       # number of overall MSHR miss cycles
system.l2.overall_mshr_miss_latency::cpu3.inst      3389000                       # number of overall MSHR miss cycles
system.l2.overall_mshr_miss_latency::cpu3.data   2054117000                       # number of overall MSHR miss cycles
system.l2.overall_mshr_miss_latency::total   9793338000                       # number of overall MSHR miss cycles
system.l2.ReadReq_mshr_miss_rate::cpu0.inst     0.444535                       # mshr miss rate for ReadReq accesses
system.l2.ReadReq_mshr_miss_rate::cpu0.data     0.984214                       # mshr miss rate for ReadReq accesses
system.l2.ReadReq_mshr_miss_rate::cpu1.inst     0.290606                       # mshr miss rate for ReadReq accesses
system.l2.ReadReq_mshr_miss_rate::cpu1.data     0.991672                       # mshr miss rate for ReadReq accesses
system.l2.ReadReq_mshr_miss_rate::cpu2.inst     0.164755                       # mshr miss rate for ReadReq accesses
system.l2.ReadReq_mshr_miss_rate::cpu2.data     0.986936                       # mshr miss rate for ReadReq accesses
system.l2.ReadReq_mshr_miss_rate::cpu3.inst     0.115226                       # mshr miss rate for ReadReq accesses
system.l2.ReadReq_mshr_miss_rate::cpu3.data     0.990381                       # mshr miss rate for ReadReq accesses
system.l2.ReadReq_mshr_miss_rate::total      0.953551                       # mshr miss rate for ReadReq accesses
system.l2.UpgradeReq_mshr_miss_rate::cpu0.data     0.600000                       # mshr miss rate for UpgradeReq accesses
system.l2.UpgradeReq_mshr_miss_rate::cpu1.data     0.500000                       # mshr miss rate for UpgradeReq accesses
system.l2.UpgradeReq_mshr_miss_rate::total     0.470588                       # mshr miss rate for UpgradeReq accesses
system.l2.SCUpgradeReq_mshr_miss_rate::cpu0.data     0.800000                       # mshr miss rate for SCUpgradeReq accesses
system.l2.SCUpgradeReq_mshr_miss_rate::cpu1.data            1                       # mshr miss rate for SCUpgradeReq accesses
system.l2.SCUpgradeReq_mshr_miss_rate::cpu2.data     0.333333                       # mshr miss rate for SCUpgradeReq accesses
system.l2.SCUpgradeReq_mshr_miss_rate::cpu3.data     0.400000                       # mshr miss rate for SCUpgradeReq accesses
system.l2.SCUpgradeReq_mshr_miss_rate::total     0.571429                       # mshr miss rate for SCUpgradeReq accesses
system.l2.ReadExReq_mshr_miss_rate::cpu0.data     0.998613                       # mshr miss rate for ReadExReq accesses
system.l2.ReadExReq_mshr_miss_rate::cpu1.data     0.997261                       # mshr miss rate for ReadExReq accesses
system.l2.ReadExReq_mshr_miss_rate::cpu2.data     0.997984                       # mshr miss rate for ReadExReq accesses
system.l2.ReadExReq_mshr_miss_rate::cpu3.data     0.999274                       # mshr miss rate for ReadExReq accesses
system.l2.ReadExReq_mshr_miss_rate::total     0.998419                       # mshr miss rate for ReadExReq accesses
system.l2.demand_mshr_miss_rate::cpu0.inst     0.444535                       # mshr miss rate for demand accesses
system.l2.demand_mshr_miss_rate::cpu0.data     0.992142                       # mshr miss rate for demand accesses
system.l2.demand_mshr_miss_rate::cpu1.inst     0.290606                       # mshr miss rate for demand accesses
system.l2.demand_mshr_miss_rate::cpu1.data     0.993063                       # mshr miss rate for demand accesses
system.l2.demand_mshr_miss_rate::cpu2.inst     0.164755                       # mshr miss rate for demand accesses
system.l2.demand_mshr_miss_rate::cpu2.data     0.989677                       # mshr miss rate for demand accesses
system.l2.demand_mshr_miss_rate::cpu3.inst     0.115226                       # mshr miss rate for demand accesses
system.l2.demand_mshr_miss_rate::cpu3.data     0.992593                       # mshr miss rate for demand accesses
system.l2.demand_mshr_miss_rate::total       0.969073                       # mshr miss rate for demand accesses
system.l2.overall_mshr_miss_rate::cpu0.inst     0.444535                       # mshr miss rate for overall accesses
system.l2.overall_mshr_miss_rate::cpu0.data     0.992142                       # mshr miss rate for overall accesses
system.l2.overall_mshr_miss_rate::cpu1.inst     0.290606                       # mshr miss rate for overall accesses
system.l2.overall_mshr_miss_rate::cpu1.data     0.993063                       # mshr miss rate for overall accesses
system.l2.overall_mshr_miss_rate::cpu2.inst     0.164755                       # mshr miss rate for overall accesses
system.l2.overall_mshr_miss_rate::cpu2.data     0.989677                       # mshr miss rate for overall accesses
system.l2.overall_mshr_miss_rate::cpu3.inst     0.115226                       # mshr miss rate for overall accesses
system.l2.overall_mshr_miss_rate::cpu3.data     0.992593                       # mshr miss rate for overall accesses
system.l2.overall_mshr_miss_rate::total      0.969073                       # mshr miss rate for overall accesses
system.l2.ReadReq_avg_mshr_miss_latency::cpu0.inst 40063.666301                       # average ReadReq mshr miss latency
system.l2.ReadReq_avg_mshr_miss_latency::cpu0.data 40803.029907                       # average ReadReq mshr miss latency
system.l2.ReadReq_avg_mshr_miss_latency::cpu1.inst 40226.586103                       # average ReadReq mshr miss latency
system.l2.ReadReq_avg_mshr_miss_latency::cpu1.data 40827.824730                       # average ReadReq mshr miss latency
system.l2.ReadReq_avg_mshr_miss_latency::cpu2.inst 40462.025316                       # average ReadReq mshr miss latency
system.l2.ReadReq_avg_mshr_miss_latency::cpu2.data 40821.965817                       # average ReadReq mshr miss latency
system.l2.ReadReq_avg_mshr_miss_latency::cpu3.inst 40345.238095                       # average ReadReq mshr miss latency
system.l2.ReadReq_avg_mshr_miss_latency::cpu3.data 40822.262990                       # average ReadReq mshr miss latency
system.l2.ReadReq_avg_mshr_miss_latency::total 40803.243936                       # average ReadReq mshr miss latency
system.l2.UpgradeReq_avg_mshr_miss_latency::cpu0.data        40000                       # average UpgradeReq mshr miss latency
system.l2.UpgradeReq_avg_mshr_miss_latency::cpu1.data        40500                       # average UpgradeReq mshr miss latency
system.l2.UpgradeReq_avg_mshr_miss_latency::total        40125                       # average UpgradeReq mshr miss latency
system.l2.SCUpgradeReq_avg_mshr_miss_latency::cpu0.data        40000                       # average SCUpgradeReq mshr miss latency
system.l2.SCUpgradeReq_avg_mshr_miss_latency::cpu1.data        40000                       # average SCUpgradeReq mshr miss latency
system.l2.SCUpgradeReq_avg_mshr_miss_latency::cpu2.data        40000                       # average SCUpgradeReq mshr miss latency
system.l2.SCUpgradeReq_avg_mshr_miss_latency::cpu3.data        40000                       # average SCUpgradeReq mshr miss latency
system.l2.SCUpgradeReq_avg_mshr_miss_latency::total        40000                       # average SCUpgradeReq mshr miss latency
system.l2.ReadExReq_avg_mshr_miss_latency::cpu0.data 40961.162800                       # average ReadExReq mshr miss latency
system.l2.ReadExReq_avg_mshr_miss_latency::cpu1.data 42332.956381                       # average ReadExReq mshr miss latency
system.l2.ReadExReq_avg_mshr_miss_latency::cpu2.data 44119.990304                       # average ReadExReq mshr miss latency
system.l2.ReadExReq_avg_mshr_miss_latency::cpu3.data 43688.847614                       # average ReadExReq mshr miss latency
system.l2.ReadExReq_avg_mshr_miss_latency::total 42022.694784                       # average ReadExReq mshr miss latency
system.l2.demand_avg_mshr_miss_latency::cpu0.inst 40063.666301                       # average overall mshr miss latency
system.l2.demand_avg_mshr_miss_latency::cpu0.data 40890.662001                       # average overall mshr miss latency
system.l2.demand_avg_mshr_miss_latency::cpu1.inst 40226.586103                       # average overall mshr miss latency
system.l2.demand_avg_mshr_miss_latency::cpu1.data 41204.001292                       # average overall mshr miss latency
system.l2.demand_avg_mshr_miss_latency::cpu2.inst 40462.025316                       # average overall mshr miss latency
system.l2.demand_avg_mshr_miss_latency::cpu2.data 41647.038609                       # average overall mshr miss latency
system.l2.demand_avg_mshr_miss_latency::cpu3.inst 40345.238095                       # average overall mshr miss latency
system.l2.demand_avg_mshr_miss_latency::cpu3.data 41540.112035                       # average overall mshr miss latency
system.l2.demand_avg_mshr_miss_latency::total 41237.885500                       # average overall mshr miss latency
system.l2.overall_avg_mshr_miss_latency::cpu0.inst 40063.666301                       # average overall mshr miss latency
system.l2.overall_avg_mshr_miss_latency::cpu0.data 40890.662001                       # average overall mshr miss latency
system.l2.overall_avg_mshr_miss_latency::cpu1.inst 40226.586103                       # average overall mshr miss latency
system.l2.overall_avg_mshr_miss_latency::cpu1.data 41204.001292                       # average overall mshr miss latency
system.l2.overall_avg_mshr_miss_latency::cpu2.inst 40462.025316                       # average overall mshr miss latency
system.l2.overall_avg_mshr_miss_latency::cpu2.data 41647.038609                       # average overall mshr miss latency
system.l2.overall_avg_mshr_miss_latency::cpu3.inst 40345.238095                       # average overall mshr miss latency
system.l2.overall_avg_mshr_miss_latency::cpu3.data 41540.112035                       # average overall mshr miss latency
system.l2.overall_avg_mshr_miss_latency::total 41237.885500                       # average overall mshr miss latency
system.l2.no_allocate_misses                        0                       # Number of misses that were no-allocate
system.cpu0.dtb.fetch_hits                          0                       # ITB hits
system.cpu0.dtb.fetch_misses                        0                       # ITB misses
system.cpu0.dtb.fetch_acv                           0                       # ITB acv
system.cpu0.dtb.fetch_accesses                      0                       # ITB accesses
system.cpu0.dtb.read_hits                     7333808                       # DTB read hits
system.cpu0.dtb.read_misses                      9641                       # DTB read misses
system.cpu0.dtb.read_acv                            0                       # DTB read access violations
system.cpu0.dtb.read_accesses                 7343449                       # DTB read accesses
system.cpu0.dtb.write_hits                    3534402                       # DTB write hits
system.cpu0.dtb.write_misses                     4493                       # DTB write misses
system.cpu0.dtb.write_acv                           0                       # DTB write access violations
system.cpu0.dtb.write_accesses                3538895                       # DTB write accesses
system.cpu0.dtb.data_hits                    10868210                       # DTB hits
system.cpu0.dtb.data_misses                     14134                       # DTB misses
system.cpu0.dtb.data_acv                            0                       # DTB access violations
system.cpu0.dtb.data_accesses                10882344                       # DTB accesses
system.cpu0.itb.fetch_hits                    4785423                       # ITB hits
system.cpu0.itb.fetch_misses                      204                       # ITB misses
system.cpu0.itb.fetch_acv                           0                       # ITB acv
system.cpu0.itb.fetch_accesses                4785627                       # ITB accesses
system.cpu0.itb.read_hits                           0                       # DTB read hits
system.cpu0.itb.read_misses                         0                       # DTB read misses
system.cpu0.itb.read_acv                            0                       # DTB read access violations
system.cpu0.itb.read_accesses                       0                       # DTB read accesses
system.cpu0.itb.write_hits                          0                       # DTB write hits
system.cpu0.itb.write_misses                        0                       # DTB write misses
system.cpu0.itb.write_acv                           0                       # DTB write access violations
system.cpu0.itb.write_accesses                      0                       # DTB write accesses
system.cpu0.itb.data_hits                           0                       # DTB hits
system.cpu0.itb.data_misses                         0                       # DTB misses
system.cpu0.itb.data_acv                            0                       # DTB access violations
system.cpu0.itb.data_accesses                       0                       # DTB accesses
system.cpu0.numCycles                        18795512                       # number of cpu cycles simulated
system.cpu0.numWorkItemsStarted                     0                       # number of work items this cpu started
system.cpu0.numWorkItemsCompleted                   0                       # number of work items this cpu completed
system.cpu0.BPredUnit.lookups                 3291400                       # Number of BP lookups
system.cpu0.BPredUnit.condPredicted           1558070                       # Number of conditional branches predicted
system.cpu0.BPredUnit.condIncorrect             17558                       # Number of conditional branches incorrect
system.cpu0.BPredUnit.BTBLookups              2062442                       # Number of BTB lookups
system.cpu0.BPredUnit.BTBHits                 1894197                       # Number of BTB hits
system.cpu0.BPredUnit.BTBCorrect                    0                       # Number of correct BTB predictions (this stat may not work properly.
system.cpu0.BPredUnit.usedRAS                  862900                       # Number of times the RAS was used to get a target.
system.cpu0.BPredUnit.RASInCorrect                651                       # Number of incorrect RAS predictions.
system.cpu0.fetch.icacheStallCycles             99943                       # Number of cycles fetch is stalled on an Icache miss
system.cpu0.fetch.Insts                      42120597                       # Number of instructions fetch has processed
system.cpu0.fetch.Branches                    3291400                       # Number of branches that fetch encountered
system.cpu0.fetch.predictedBranches           2757097                       # Number of branches that fetch has predicted taken
system.cpu0.fetch.Cycles                      6969430                       # Number of cycles fetch has run and was not squashing or blocked
system.cpu0.fetch.SquashCycles                 118891                       # Number of cycles fetch has spent squashing
system.cpu0.fetch.BlockedCycles              11536124                       # Number of cycles fetch has spent blocked
system.cpu0.fetch.MiscStallCycles                 100                       # Number of cycles fetch has spent waiting on interrupts, or bad addresses, or out of MSHRs
system.cpu0.fetch.PendingTrapStallCycles         3645                       # Number of stall cycles due to pending traps
system.cpu0.fetch.CacheLines                  4785423                       # Number of cache lines fetched
system.cpu0.fetch.IcacheSquashes                 3170                       # Number of outstanding Icache misses that were squashed
system.cpu0.fetch.rateDist::samples          18707095                       # Number of instructions fetched each cycle (Total)
system.cpu0.fetch.rateDist::mean             2.251584                       # Number of instructions fetched each cycle (Total)
system.cpu0.fetch.rateDist::stdev            3.236656                       # Number of instructions fetched each cycle (Total)
system.cpu0.fetch.rateDist::underflows              0      0.00%      0.00% # Number of instructions fetched each cycle (Total)
system.cpu0.fetch.rateDist::0                11737665     62.74%     62.74% # Number of instructions fetched each cycle (Total)
system.cpu0.fetch.rateDist::1                  396352      2.12%     64.86% # Number of instructions fetched each cycle (Total)
system.cpu0.fetch.rateDist::2                  289794      1.55%     66.41% # Number of instructions fetched each cycle (Total)
system.cpu0.fetch.rateDist::3                  250117      1.34%     67.75% # Number of instructions fetched each cycle (Total)
system.cpu0.fetch.rateDist::4                 1272688      6.80%     74.55% # Number of instructions fetched each cycle (Total)
system.cpu0.fetch.rateDist::5                  421784      2.25%     76.81% # Number of instructions fetched each cycle (Total)
system.cpu0.fetch.rateDist::6                  572880      3.06%     79.87% # Number of instructions fetched each cycle (Total)
system.cpu0.fetch.rateDist::7                  369166      1.97%     81.84% # Number of instructions fetched each cycle (Total)
system.cpu0.fetch.rateDist::8                 3396649     18.16%    100.00% # Number of instructions fetched each cycle (Total)
system.cpu0.fetch.rateDist::overflows               0      0.00%    100.00% # Number of instructions fetched each cycle (Total)
system.cpu0.fetch.rateDist::min_value               0                       # Number of instructions fetched each cycle (Total)
system.cpu0.fetch.rateDist::max_value               8                       # Number of instructions fetched each cycle (Total)
system.cpu0.fetch.rateDist::total            18707095                       # Number of instructions fetched each cycle (Total)
system.cpu0.fetch.branchRate                 0.175116                       # Number of branch fetches per cycle
system.cpu0.fetch.rate                       2.240992                       # Number of inst fetches per cycle
system.cpu0.decode.IdleCycles                  993882                       # Number of cycles decode is idle
system.cpu0.decode.BlockedCycles             10663079                       # Number of cycles decode is blocked
system.cpu0.decode.RunCycles                  6108324                       # Number of cycles decode is running
system.cpu0.decode.UnblockCycles               845422                       # Number of cycles decode is unblocking
system.cpu0.decode.SquashCycles                 96388                       # Number of cycles decode is squashing
system.cpu0.decode.BranchResolved              736288                       # Number of times decode resolved a branch
system.cpu0.decode.BranchMispred                 1514                       # Number of times decode detected a branch misprediction
system.cpu0.decode.DecodedInsts              42014132                       # Number of instructions handled by decode
system.cpu0.decode.SquashedInsts                 6226                       # Number of squashed instructions handled by decode
system.cpu0.rename.SquashCycles                 96388                       # Number of cycles rename is squashing
system.cpu0.rename.IdleCycles                 1752603                       # Number of cycles rename is idle
system.cpu0.rename.BlockCycles                1462948                       # Number of cycles rename is blocking
system.cpu0.rename.serializeStallCycles       7146749                       # count of cycles rename stalled for serializing inst
system.cpu0.rename.RunCycles                  6186164                       # Number of cycles rename is running
system.cpu0.rename.UnblockCycles              2062243                       # Number of cycles rename is unblocking
system.cpu0.rename.RenamedInsts              41916528                       # Number of instructions processed by rename
system.cpu0.rename.ROBFullEvents                    2                       # Number of times rename has blocked due to ROB full
system.cpu0.rename.IQFullEvents                 99342                       # Number of times rename has blocked due to IQ full
system.cpu0.rename.LSQFullEvents              1295201                       # Number of times rename has blocked due to LSQ full
system.cpu0.rename.FullRegisterEvents           10101                       # Number of times there has been no free registers
system.cpu0.rename.RenamedOperands           32929151                       # Number of destination operands rename has renamed
system.cpu0.rename.RenameLookups             55943621                       # Number of register rename lookups that rename has made
system.cpu0.rename.int_rename_lookups        38172711                       # Number of integer rename lookups
system.cpu0.rename.fp_rename_lookups         17770910                       # Number of floating rename lookups
system.cpu0.rename.CommittedMaps             32287655                       # Number of HB maps that are committed
system.cpu0.rename.UndoneMaps                  641496                       # Number of HB maps that are undone due to squashing
system.cpu0.rename.serializingInsts            132422                       # count of serializing insts renamed
system.cpu0.rename.tempSerializingInsts           962                       # count of temporary serializing insts renamed
system.cpu0.rename.skidInsts                  8522180                       # count of insts added to the skid buffer
system.cpu0.memDep0.insertedLoads             7381066                       # Number of loads inserted to the mem dependence unit.
system.cpu0.memDep0.insertedStores            3586625                       # Number of stores inserted to the mem dependence unit.
system.cpu0.memDep0.conflictingLoads          1423828                       # Number of conflicting loads.
system.cpu0.memDep0.conflictingStores          269479                       # Number of conflicting stores.
system.cpu0.iq.iqInstsAdded                  39049342                       # Number of instructions added to the IQ (excludes non-spec)
system.cpu0.iq.iqNonSpecInstsAdded               1479                       # Number of non-speculative instructions added to the IQ
system.cpu0.iq.iqInstsIssued                 38835991                       # Number of instructions issued
system.cpu0.iq.iqSquashedInstsIssued            24320                       # Number of squashed instructions issued
system.cpu0.iq.iqSquashedInstsExamined         700336                       # Number of squashed instructions iterated over during squash; mainly for profiling
system.cpu0.iq.iqSquashedOperandsExamined       410166                       # Number of squashed operands that are examined and possibly removed from graph
system.cpu0.iq.iqSquashedNonSpecRemoved           317                       # Number of squashed non-spec instructions that were removed
system.cpu0.iq.issued_per_cycle::samples     18707095                       # Number of insts issued each cycle
system.cpu0.iq.issued_per_cycle::mean        2.076003                       # Number of insts issued each cycle
system.cpu0.iq.issued_per_cycle::stdev       1.915373                       # Number of insts issued each cycle
system.cpu0.iq.issued_per_cycle::underflows            0      0.00%      0.00% # Number of insts issued each cycle
system.cpu0.iq.issued_per_cycle::0            5604764     29.96%     29.96% # Number of insts issued each cycle
system.cpu0.iq.issued_per_cycle::1            2796784     14.95%     44.91% # Number of insts issued each cycle
system.cpu0.iq.issued_per_cycle::2            2996260     16.02%     60.93% # Number of insts issued each cycle
system.cpu0.iq.issued_per_cycle::3            2891614     15.46%     76.39% # Number of insts issued each cycle
system.cpu0.iq.issued_per_cycle::4            2318764     12.40%     88.78% # Number of insts issued each cycle
system.cpu0.iq.issued_per_cycle::5            1050487      5.62%     94.40% # Number of insts issued each cycle
system.cpu0.iq.issued_per_cycle::6             565530      3.02%     97.42% # Number of insts issued each cycle
system.cpu0.iq.issued_per_cycle::7             411962      2.20%     99.62% # Number of insts issued each cycle
system.cpu0.iq.issued_per_cycle::8              70930      0.38%    100.00% # Number of insts issued each cycle
system.cpu0.iq.issued_per_cycle::overflows            0      0.00%    100.00% # Number of insts issued each cycle
system.cpu0.iq.issued_per_cycle::min_value            0                       # Number of insts issued each cycle
system.cpu0.iq.issued_per_cycle::max_value            8                       # Number of insts issued each cycle
system.cpu0.iq.issued_per_cycle::total       18707095                       # Number of insts issued each cycle
system.cpu0.iq.fu_full::No_OpClass                  0      0.00%      0.00% # attempts to use FU when none available
system.cpu0.iq.fu_full::IntAlu                  64379      8.81%      8.81% # attempts to use FU when none available
system.cpu0.iq.fu_full::IntMult                262149     35.88%     44.70% # attempts to use FU when none available
system.cpu0.iq.fu_full::IntDiv                      0      0.00%     44.70% # attempts to use FU when none available
system.cpu0.iq.fu_full::FloatAdd                 4458      0.61%     45.31% # attempts to use FU when none available
system.cpu0.iq.fu_full::FloatCmp                    0      0.00%     45.31% # attempts to use FU when none available
system.cpu0.iq.fu_full::FloatCvt                    0      0.00%     45.31% # attempts to use FU when none available
system.cpu0.iq.fu_full::FloatMult              292544     40.05%     85.35% # attempts to use FU when none available
system.cpu0.iq.fu_full::FloatDiv                    1      0.00%     85.35% # attempts to use FU when none available
system.cpu0.iq.fu_full::FloatSqrt                   0      0.00%     85.35% # attempts to use FU when none available
system.cpu0.iq.fu_full::SimdAdd                     0      0.00%     85.35% # attempts to use FU when none available
system.cpu0.iq.fu_full::SimdAddAcc                  0      0.00%     85.35% # attempts to use FU when none available
system.cpu0.iq.fu_full::SimdAlu                     0      0.00%     85.35% # attempts to use FU when none available
system.cpu0.iq.fu_full::SimdCmp                     0      0.00%     85.35% # attempts to use FU when none available
system.cpu0.iq.fu_full::SimdCvt                     0      0.00%     85.35% # attempts to use FU when none available
system.cpu0.iq.fu_full::SimdMisc                    0      0.00%     85.35% # attempts to use FU when none available
system.cpu0.iq.fu_full::SimdMult                    0      0.00%     85.35% # attempts to use FU when none available
system.cpu0.iq.fu_full::SimdMultAcc                 0      0.00%     85.35% # attempts to use FU when none available
system.cpu0.iq.fu_full::SimdShift                   0      0.00%     85.35% # attempts to use FU when none available
system.cpu0.iq.fu_full::SimdShiftAcc                0      0.00%     85.35% # attempts to use FU when none available
system.cpu0.iq.fu_full::SimdSqrt                    0      0.00%     85.35% # attempts to use FU when none available
system.cpu0.iq.fu_full::SimdFloatAdd                0      0.00%     85.35% # attempts to use FU when none available
system.cpu0.iq.fu_full::SimdFloatAlu                0      0.00%     85.35% # attempts to use FU when none available
system.cpu0.iq.fu_full::SimdFloatCmp                0      0.00%     85.35% # attempts to use FU when none available
system.cpu0.iq.fu_full::SimdFloatCvt                0      0.00%     85.35% # attempts to use FU when none available
system.cpu0.iq.fu_full::SimdFloatDiv                0      0.00%     85.35% # attempts to use FU when none available
system.cpu0.iq.fu_full::SimdFloatMisc               0      0.00%     85.35% # attempts to use FU when none available
system.cpu0.iq.fu_full::SimdFloatMult               0      0.00%     85.35% # attempts to use FU when none available
system.cpu0.iq.fu_full::SimdFloatMultAcc            0      0.00%     85.35% # attempts to use FU when none available
system.cpu0.iq.fu_full::SimdFloatSqrt               0      0.00%     85.35% # attempts to use FU when none available
system.cpu0.iq.fu_full::MemRead                 92364     12.64%     98.00% # attempts to use FU when none available
system.cpu0.iq.fu_full::MemWrite                14636      2.00%    100.00% # attempts to use FU when none available
system.cpu0.iq.fu_full::IprAccess                   0      0.00%    100.00% # attempts to use FU when none available
system.cpu0.iq.fu_full::InstPrefetch                0      0.00%    100.00% # attempts to use FU when none available
system.cpu0.iq.FU_type_0::No_OpClass                0      0.00%      0.00% # Type of FU issued
system.cpu0.iq.FU_type_0::IntAlu             21073017     54.26%     54.26% # Type of FU issued
system.cpu0.iq.FU_type_0::IntMult              787047      2.03%     56.29% # Type of FU issued
system.cpu0.iq.FU_type_0::IntDiv                    0      0.00%     56.29% # Type of FU issued
system.cpu0.iq.FU_type_0::FloatAdd            3048517      7.85%     64.14% # Type of FU issued
[...]
system.cpu3.icache.overall_mshr_miss_latency::total     13065000                       # number of overall MSHR miss cycles
system.cpu3.icache.ReadReq_mshr_miss_rate::cpu3.inst     0.001029                       # mshr miss rate for ReadReq accesses
system.cpu3.icache.ReadReq_mshr_miss_rate::total     0.001029                       # mshr miss rate for ReadReq accesses
system.cpu3.icache.demand_mshr_miss_rate::cpu3.inst     0.001029                       # mshr miss rate for demand accesses
system.cpu3.icache.demand_mshr_miss_rate::total     0.001029                       # mshr miss rate for demand accesses
system.cpu3.icache.overall_mshr_miss_rate::cpu3.inst     0.001029                       # mshr miss rate for overall accesses
system.cpu3.icache.overall_mshr_miss_rate::total     0.001029                       # mshr miss rate for overall accesses
system.cpu3.icache.ReadReq_avg_mshr_miss_latency::cpu3.inst 17921.810700                       # average ReadReq mshr miss latency
system.cpu3.icache.ReadReq_avg_mshr_miss_latency::total 17921.810700                       # average ReadReq mshr miss latency
system.cpu3.icache.demand_avg_mshr_miss_latency::cpu3.inst 17921.810700                       # average overall mshr miss latency
system.cpu3.icache.demand_avg_mshr_miss_latency::total 17921.810700                       # average overall mshr miss latency
system.cpu3.icache.overall_avg_mshr_miss_latency::cpu3.inst 17921.810700                       # average overall mshr miss latency
system.cpu3.icache.overall_avg_mshr_miss_latency::total 17921.810700                       # average overall mshr miss latency
system.cpu3.icache.no_allocate_misses               0                       # Number of misses that were no-allocate
system.cpu3.dcache.replacements                 49341                       # number of replacements
system.cpu3.dcache.tagsinuse                91.811629                       # Cycle average of tags in use
system.cpu3.dcache.total_refs                 1656692                       # Total number of references to valid blocks.
system.cpu3.dcache.sampled_refs                 49846                       # Sample count of references to valid blocks.
system.cpu3.dcache.avg_refs                 33.236208                       # Average number of references to valid blocks.
system.cpu3.dcache.warmup_cycle           15469237000                       # Cycle when the warmup percentage was hit.
system.cpu3.dcache.occ_blocks::cpu3.data    91.811629                       # Average occupied blocks per requestor
system.cpu3.dcache.occ_percent::cpu3.data     0.179320                       # Average percentage of cache occupancy
system.cpu3.dcache.occ_percent::total        0.179320                       # Average percentage of cache occupancy
system.cpu3.dcache.ReadReq_hits::cpu3.data       930978                       # number of ReadReq hits
system.cpu3.dcache.ReadReq_hits::total         930978                       # number of ReadReq hits
system.cpu3.dcache.WriteReq_hits::cpu3.data       725647                       # number of WriteReq hits
system.cpu3.dcache.WriteReq_hits::total        725647                       # number of WriteReq hits
system.cpu3.dcache.LoadLockedReq_hits::cpu3.data           22                       # number of LoadLockedReq hits
system.cpu3.dcache.LoadLockedReq_hits::total           22                       # number of LoadLockedReq hits
system.cpu3.dcache.StoreCondReq_hits::cpu3.data           15                       # number of StoreCondReq hits
system.cpu3.dcache.StoreCondReq_hits::total           15                       # number of StoreCondReq hits
system.cpu3.dcache.demand_hits::cpu3.data      1656625                       # number of demand (read+write) hits
system.cpu3.dcache.demand_hits::total         1656625                       # number of demand (read+write) hits
system.cpu3.dcache.overall_hits::cpu3.data      1656625                       # number of overall hits
system.cpu3.dcache.overall_hits::total        1656625                       # number of overall hits
system.cpu3.dcache.ReadReq_misses::cpu3.data       213530                       # number of ReadReq misses
system.cpu3.dcache.ReadReq_misses::total       213530                       # number of ReadReq misses
system.cpu3.dcache.WriteReq_misses::cpu3.data        25259                       # number of WriteReq misses
system.cpu3.dcache.WriteReq_misses::total        25259                       # number of WriteReq misses
system.cpu3.dcache.LoadLockedReq_misses::cpu3.data            9                       # number of LoadLockedReq misses
system.cpu3.dcache.LoadLockedReq_misses::total            9                       # number of LoadLockedReq misses
system.cpu3.dcache.StoreCondReq_misses::cpu3.data           12                       # number of StoreCondReq misses
system.cpu3.dcache.StoreCondReq_misses::total           12                       # number of StoreCondReq misses
system.cpu3.dcache.demand_misses::cpu3.data       238789                       # number of demand (read+write) misses
system.cpu3.dcache.demand_misses::total        238789                       # number of demand (read+write) misses
system.cpu3.dcache.overall_misses::cpu3.data       238789                       # number of overall misses
system.cpu3.dcache.overall_misses::total       238789                       # number of overall misses
system.cpu3.dcache.ReadReq_miss_latency::cpu3.data  11477341000                       # number of ReadReq miss cycles
system.cpu3.dcache.ReadReq_miss_latency::total  11477341000                       # number of ReadReq miss cycles
system.cpu3.dcache.WriteReq_miss_latency::cpu3.data   1528888294                       # number of WriteReq miss cycles
system.cpu3.dcache.WriteReq_miss_latency::total   1528888294                       # number of WriteReq miss cycles
system.cpu3.dcache.LoadLockedReq_miss_latency::cpu3.data       163000                       # number of LoadLockedReq miss cycles
system.cpu3.dcache.LoadLockedReq_miss_latency::total       163000                       # number of LoadLockedReq miss cycles
system.cpu3.dcache.StoreCondReq_miss_latency::cpu3.data       192000                       # number of StoreCondReq miss cycles
system.cpu3.dcache.StoreCondReq_miss_latency::total       192000                       # number of StoreCondReq miss cycles
system.cpu3.dcache.demand_miss_latency::cpu3.data  13006229294                       # number of demand (read+write) miss cycles
system.cpu3.dcache.demand_miss_latency::total  13006229294                       # number of demand (read+write) miss cycles
system.cpu3.dcache.overall_miss_latency::cpu3.data  13006229294                       # number of overall miss cycles
system.cpu3.dcache.overall_miss_latency::total  13006229294                       # number of overall miss cycles
system.cpu3.dcache.ReadReq_accesses::cpu3.data      1144508                       # number of ReadReq accesses(hits+misses)
system.cpu3.dcache.ReadReq_accesses::total      1144508                       # number of ReadReq accesses(hits+misses)
system.cpu3.dcache.WriteReq_accesses::cpu3.data       750906                       # number of WriteReq accesses(hits+misses)
system.cpu3.dcache.WriteReq_accesses::total       750906                       # number of WriteReq accesses(hits+misses)
system.cpu3.dcache.LoadLockedReq_accesses::cpu3.data           31                       # number of LoadLockedReq accesses(hits+misses)
system.cpu3.dcache.LoadLockedReq_accesses::total           31                       # number of LoadLockedReq accesses(hits+misses)
system.cpu3.dcache.StoreCondReq_accesses::cpu3.data           27                       # number of StoreCondReq accesses(hits+misses)
system.cpu3.dcache.StoreCondReq_accesses::total           27                       # number of StoreCondReq accesses(hits+misses)
system.cpu3.dcache.demand_accesses::cpu3.data      1895414                       # number of demand (read+write) accesses
system.cpu3.dcache.demand_accesses::total      1895414                       # number of demand (read+write) accesses
system.cpu3.dcache.overall_accesses::cpu3.data      1895414                       # number of overall (read+write) accesses
system.cpu3.dcache.overall_accesses::total      1895414                       # number of overall (read+write) accesses
system.cpu3.dcache.ReadReq_miss_rate::cpu3.data     0.186569                       # miss rate for ReadReq accesses
system.cpu3.dcache.ReadReq_miss_rate::total     0.186569                       # miss rate for ReadReq accesses
system.cpu3.dcache.WriteReq_miss_rate::cpu3.data     0.033638                       # miss rate for WriteReq accesses
system.cpu3.dcache.WriteReq_miss_rate::total     0.033638                       # miss rate for WriteReq accesses
system.cpu3.dcache.LoadLockedReq_miss_rate::cpu3.data     0.290323                       # miss rate for LoadLockedReq accesses
system.cpu3.dcache.LoadLockedReq_miss_rate::total     0.290323                       # miss rate for LoadLockedReq accesses
system.cpu3.dcache.StoreCondReq_miss_rate::cpu3.data     0.444444                       # miss rate for StoreCondReq accesses
system.cpu3.dcache.StoreCondReq_miss_rate::total     0.444444                       # miss rate for StoreCondReq accesses
system.cpu3.dcache.demand_miss_rate::cpu3.data     0.125983                       # miss rate for demand accesses
system.cpu3.dcache.demand_miss_rate::total     0.125983                       # miss rate for demand accesses
system.cpu3.dcache.overall_miss_rate::cpu3.data     0.125983                       # miss rate for overall accesses
system.cpu3.dcache.overall_miss_rate::total     0.125983                       # miss rate for overall accesses
system.cpu3.dcache.ReadReq_avg_miss_latency::cpu3.data 53750.484709                       # average ReadReq miss latency
system.cpu3.dcache.ReadReq_avg_miss_latency::total 53750.484709                       # average ReadReq miss latency
system.cpu3.dcache.WriteReq_avg_miss_latency::cpu3.data 60528.456946                       # average WriteReq miss latency
system.cpu3.dcache.WriteReq_avg_miss_latency::total 60528.456946                       # average WriteReq miss latency
system.cpu3.dcache.LoadLockedReq_avg_miss_latency::cpu3.data 18111.111111                       # average LoadLockedReq miss latency
system.cpu3.dcache.LoadLockedReq_avg_miss_latency::total 18111.111111                       # average LoadLockedReq miss latency
system.cpu3.dcache.StoreCondReq_avg_miss_latency::cpu3.data        16000                       # average StoreCondReq miss latency
system.cpu3.dcache.StoreCondReq_avg_miss_latency::total        16000                       # average StoreCondReq miss latency
system.cpu3.dcache.demand_avg_miss_latency::cpu3.data 54467.455762                       # average overall miss latency
system.cpu3.dcache.demand_avg_miss_latency::total 54467.455762                       # average overall miss latency
system.cpu3.dcache.overall_avg_miss_latency::cpu3.data 54467.455762                       # average overall miss latency
system.cpu3.dcache.overall_avg_miss_latency::total 54467.455762                       # average overall miss latency
system.cpu3.dcache.blocked_cycles::no_mshrs      1075000                       # number of cycles access was blocked
system.cpu3.dcache.blocked_cycles::no_targets    951158998                       # number of cycles access was blocked
system.cpu3.dcache.blocked::no_mshrs               57                       # number of cycles access was blocked
system.cpu3.dcache.blocked::no_targets          20407                       # number of cycles access was blocked
system.cpu3.dcache.avg_blocked_cycles::no_mshrs 18859.649123                       # average number of cycles each access was blocked
system.cpu3.dcache.avg_blocked_cycles::no_targets 46609.447641                       # average number of cycles each access was blocked
system.cpu3.dcache.fast_writes                      0                       # number of fast writes performed
system.cpu3.dcache.cache_copies                     0                       # number of cache copies performed
system.cpu3.dcache.writebacks::writebacks        20236                       # number of writebacks
system.cpu3.dcache.writebacks::total            20236                       # number of writebacks
system.cpu3.dcache.ReadReq_mshr_hits::cpu3.data       176054                       # number of ReadReq MSHR hits
system.cpu3.dcache.ReadReq_mshr_hits::total       176054                       # number of ReadReq MSHR hits
system.cpu3.dcache.WriteReq_mshr_hits::cpu3.data        12832                       # number of WriteReq MSHR hits
system.cpu3.dcache.WriteReq_mshr_hits::total        12832                       # number of WriteReq MSHR hits
system.cpu3.dcache.LoadLockedReq_mshr_hits::cpu3.data            4                       # number of LoadLockedReq MSHR hits
system.cpu3.dcache.LoadLockedReq_mshr_hits::total            4                       # number of LoadLockedReq MSHR hits
system.cpu3.dcache.demand_mshr_hits::cpu3.data       188886                       # number of demand (read+write) MSHR hits
system.cpu3.dcache.demand_mshr_hits::total       188886                       # number of demand (read+write) MSHR hits
system.cpu3.dcache.overall_mshr_hits::cpu3.data       188886                       # number of overall MSHR hits
system.cpu3.dcache.overall_mshr_hits::total       188886                       # number of overall MSHR hits
system.cpu3.dcache.ReadReq_mshr_misses::cpu3.data        37476                       # number of ReadReq MSHR misses
system.cpu3.dcache.ReadReq_mshr_misses::total        37476                       # number of ReadReq MSHR misses
system.cpu3.dcache.WriteReq_mshr_misses::cpu3.data        12427                       # number of WriteReq MSHR misses
system.cpu3.dcache.WriteReq_mshr_misses::total        12427                       # number of WriteReq MSHR misses
system.cpu3.dcache.LoadLockedReq_mshr_misses::cpu3.data            5                       # number of LoadLockedReq MSHR misses
system.cpu3.dcache.LoadLockedReq_mshr_misses::total            5                       # number of LoadLockedReq MSHR misses
system.cpu3.dcache.StoreCondReq_mshr_misses::cpu3.data           12                       # number of StoreCondReq MSHR misses
system.cpu3.dcache.StoreCondReq_mshr_misses::total           12                       # number of StoreCondReq MSHR misses
system.cpu3.dcache.demand_mshr_misses::cpu3.data        49903                       # number of demand (read+write) MSHR misses
system.cpu3.dcache.demand_mshr_misses::total        49903                       # number of demand (read+write) MSHR misses
system.cpu3.dcache.overall_mshr_misses::cpu3.data        49903                       # number of overall MSHR misses
system.cpu3.dcache.overall_mshr_misses::total        49903                       # number of overall MSHR misses
system.cpu3.dcache.ReadReq_mshr_miss_latency::cpu3.data   2044302000                       # number of ReadReq MSHR miss cycles
system.cpu3.dcache.ReadReq_mshr_miss_latency::total   2044302000                       # number of ReadReq MSHR miss cycles
system.cpu3.dcache.WriteReq_mshr_miss_latency::cpu3.data    787798661                       # number of WriteReq MSHR miss cycles
system.cpu3.dcache.WriteReq_mshr_miss_latency::total    787798661                       # number of WriteReq MSHR miss cycles
system.cpu3.dcache.LoadLockedReq_mshr_miss_latency::cpu3.data        13000                       # number of LoadLockedReq MSHR miss cycles
system.cpu3.dcache.LoadLockedReq_mshr_miss_latency::total        13000                       # number of LoadLockedReq MSHR miss cycles
system.cpu3.dcache.StoreCondReq_mshr_miss_latency::cpu3.data       156000                       # number of StoreCondReq MSHR miss cycles
system.cpu3.dcache.StoreCondReq_mshr_miss_latency::total       156000                       # number of StoreCondReq MSHR miss cycles
system.cpu3.dcache.demand_mshr_miss_latency::cpu3.data   2832100661                       # number of demand (read+write) MSHR miss cycles
system.cpu3.dcache.demand_mshr_miss_latency::total   2832100661                       # number of demand (read+write) MSHR miss cycles
system.cpu3.dcache.overall_mshr_miss_latency::cpu3.data   2832100661                       # number of overall MSHR miss cycles
system.cpu3.dcache.overall_mshr_miss_latency::total   2832100661                       # number of overall MSHR miss cycles
system.cpu3.dcache.ReadReq_mshr_miss_rate::cpu3.data     0.032744                       # mshr miss rate for ReadReq accesses
system.cpu3.dcache.ReadReq_mshr_miss_rate::total     0.032744                       # mshr miss rate for ReadReq accesses
system.cpu3.dcache.WriteReq_mshr_miss_rate::cpu3.data     0.016549                       # mshr miss rate for WriteReq accesses
system.cpu3.dcache.WriteReq_mshr_miss_rate::total     0.016549                       # mshr miss rate for WriteReq accesses
system.cpu3.dcache.LoadLockedReq_mshr_miss_rate::cpu3.data     0.161290                       # mshr miss rate for LoadLockedReq accesses
system.cpu3.dcache.LoadLockedReq_mshr_miss_rate::total     0.161290                       # mshr miss rate for LoadLockedReq accesses
system.cpu3.dcache.StoreCondReq_mshr_miss_rate::cpu3.data     0.444444                       # mshr miss rate for StoreCondReq accesses
system.cpu3.dcache.StoreCondReq_mshr_miss_rate::total     0.444444                       # mshr miss rate for StoreCondReq accesses
system.cpu3.dcache.demand_mshr_miss_rate::cpu3.data     0.026328                       # mshr miss rate for demand accesses
system.cpu3.dcache.demand_mshr_miss_rate::total     0.026328                       # mshr miss rate for demand accesses
system.cpu3.dcache.overall_mshr_miss_rate::cpu3.data     0.026328                       # mshr miss rate for overall accesses
system.cpu3.dcache.overall_mshr_miss_rate::total     0.026328                       # mshr miss rate for overall accesses
system.cpu3.dcache.ReadReq_avg_mshr_miss_latency::cpu3.data 54549.631764                       # average ReadReq mshr miss latency
system.cpu3.dcache.ReadReq_avg_mshr_miss_latency::total 54549.631764                       # average ReadReq mshr miss latency
system.cpu3.dcache.WriteReq_avg_mshr_miss_latency::cpu3.data 63394.114509                       # average WriteReq mshr miss latency
system.cpu3.dcache.WriteReq_avg_mshr_miss_latency::total 63394.114509                       # average WriteReq mshr miss latency
system.cpu3.dcache.LoadLockedReq_avg_mshr_miss_latency::cpu3.data         2600                       # average LoadLockedReq mshr miss latency
system.cpu3.dcache.LoadLockedReq_avg_mshr_miss_latency::total         2600                       # average LoadLockedReq mshr miss latency
system.cpu3.dcache.StoreCondReq_avg_mshr_miss_latency::cpu3.data        13000                       # average StoreCondReq mshr miss latency
system.cpu3.dcache.StoreCondReq_avg_mshr_miss_latency::total        13000                       # average StoreCondReq mshr miss latency
system.cpu3.dcache.demand_avg_mshr_miss_latency::cpu3.data 56752.112318                       # average overall mshr miss latency
system.cpu3.dcache.demand_avg_mshr_miss_latency::total 56752.112318                       # average overall mshr miss latency
system.cpu3.dcache.overall_avg_mshr_miss_latency::cpu3.data 56752.112318                       # average overall mshr miss latency
system.cpu3.dcache.overall_avg_mshr_miss_latency::total 56752.112318                       # average overall mshr miss latency
system.cpu3.dcache.no_allocate_misses               0                       # Number of misses that were no-allocate

---------- End Simulation Statistics   ----------
