
---------- Begin Simulation Statistics ----------
sim_seconds                                  0.143046                       # Number of seconds simulated
sim_ticks                                143046331000                       # Number of ticks simulated
final_tick                               143046331000                       # Number of ticks from beginning of simulation (restored from checkpoints and never reset)
sim_freq                                 1000000000000                       # Frequency of simulated ticks
host_inst_rate                                 131680                       # Simulator instruction rate (inst/s)
host_op_rate                                   201706                       # Simulator op (including micro ops) rate (op/s)
host_tick_rate                              214857531                       # Simulator tick rate (ticks/s)
host_mem_usage                                 333672                       # Number of bytes of host memory used
host_seconds                                   665.77                       # Real time elapsed on the host
sim_insts                                    87668975                       # Number of instructions simulated
sim_ops                                     134290589                       # Number of ops (including micro ops) simulated
system.ruby.l1_cntrl0.L1Dcache.demand_hits      2347094                       # Number of cache demand hits
system.ruby.l1_cntrl0.L1Dcache.demand_misses       232417                       # Number of cache demand misses
system.ruby.l1_cntrl0.L1Dcache.demand_accesses      2579511                       # Number of cache demand accesses
system.ruby.l1_cntrl0.L1Icache.demand_hits     30879596                       # Number of cache demand hits
system.ruby.l1_cntrl0.L1Icache.demand_misses          692                       # Number of cache demand misses
system.ruby.l1_cntrl0.L1Icache.demand_accesses     30880288                       # Number of cache demand accesses
system.ruby.l1_cntrl1.L1Dcache.demand_hits      2372616                       # Number of cache demand hits
system.ruby.l1_cntrl1.L1Dcache.demand_misses       230708                       # Number of cache demand misses
system.ruby.l1_cntrl1.L1Dcache.demand_accesses      2603324                       # Number of cache demand accesses
system.ruby.l1_cntrl1.L1Icache.demand_hits     30904411                       # Number of cache demand hits
system.ruby.l1_cntrl1.L1Icache.demand_misses          158                       # Number of cache demand misses
system.ruby.l1_cntrl1.L1Icache.demand_accesses     30904569                       # Number of cache demand accesses
system.ruby.l1_cntrl2.L1Dcache.demand_hits      2369996                       # Number of cache demand hits
system.ruby.l1_cntrl2.L1Dcache.demand_misses       231661                       # Number of cache demand misses
system.ruby.l1_cntrl2.L1Dcache.demand_accesses      2601657                       # Number of cache demand accesses
system.ruby.l1_cntrl2.L1Icache.demand_hits     30905451                       # Number of cache demand hits
system.ruby.l1_cntrl2.L1Icache.demand_misses          147                       # Number of cache demand misses
system.ruby.l1_cntrl2.L1Icache.demand_accesses     30905598                       # Number of cache demand accesses
system.ruby.l1_cntrl3.L1Dcache.demand_hits      2325453                       # Number of cache demand hits
system.ruby.l1_cntrl3.L1Dcache.demand_misses       233035                       # Number of cache demand misses
system.ruby.l1_cntrl3.L1Dcache.demand_accesses      2558488                       # Number of cache demand accesses
system.ruby.l1_cntrl3.L1Icache.demand_hits     30828226                       # Number of cache demand hits
system.ruby.l1_cntrl3.L1Icache.demand_misses          155                       # Number of cache demand misses
system.ruby.l1_cntrl3.L1Icache.demand_accesses     30828381                       # Number of cache demand accesses
system.ruby.l2_cntrl1.L2cache.demand_hits       112922                       # Number of cache demand hits
system.ruby.l2_cntrl1.L2cache.demand_misses       119229                       # Number of cache demand misses
system.ruby.l2_cntrl1.L2cache.demand_accesses       232151                       # Number of cache demand accesses
system.ruby.l2_cntrl0.L2cache.demand_hits       112764                       # Number of cache demand hits
system.ruby.l2_cntrl0.L2cache.demand_misses       120526                       # Number of cache demand misses
system.ruby.l2_cntrl0.L2cache.demand_accesses       233290                       # Number of cache demand accesses
system.ruby.l2_cntrl3.L2cache.demand_hits       112896                       # Number of cache demand hits
system.ruby.l2_cntrl3.L2cache.demand_misses       119020                       # Number of cache demand misses
system.ruby.l2_cntrl3.L2cache.demand_accesses       231916                       # Number of cache demand accesses
system.ruby.l2_cntrl2.L2cache.demand_hits       112644                       # Number of cache demand hits
system.ruby.l2_cntrl2.L2cache.demand_misses       118972                       # Number of cache demand misses
system.ruby.l2_cntrl2.L2cache.demand_accesses       231616                       # Number of cache demand accesses
system.ruby.dir_cntrl0.memBuffer.memReq        168674                       # Total number of memory requests
system.ruby.dir_cntrl0.memBuffer.memRead       118114                       # Number of memory reads
system.ruby.dir_cntrl0.memBuffer.memWrite        50560                       # Number of memory writes
system.ruby.dir_cntrl0.memBuffer.memRefresh       512284                       # Number of memory refreshes
system.ruby.dir_cntrl0.memBuffer.memWaitCycles       106638                       # Delay stalled at the head of the bank queue
system.ruby.dir_cntrl0.memBuffer.memInputQ          253                       # Delay in the input queue
system.ruby.dir_cntrl0.memBuffer.memBankQ         1131                       # Delay behind the head of the bank queue
system.ruby.dir_cntrl0.memBuffer.totalStalls       108022                       # Total number of stall cycles
system.ruby.dir_cntrl0.memBuffer.stallsPerReq     0.640419                       # Expected number of stall cycles per request
system.ruby.dir_cntrl0.memBuffer.memBankBusy        96444                       # memory stalls due to busy bank
system.ruby.dir_cntrl0.memBuffer.memBusBusy         6244                       # memory stalls due to busy bus
system.ruby.dir_cntrl0.memBuffer.memReadWriteBusy         1185                       # memory stalls due to read write turnaround
system.ruby.dir_cntrl0.memBuffer.memDataBusBusy          757                       # memory stalls due to read read turnaround
system.ruby.dir_cntrl0.memBuffer.memArbWait         2008                       # memory stalls due to arbitration
system.ruby.dir_cntrl0.memBuffer.memBankCount |        5277      3.13%      3.13% |        5290      3.14%      6.26% |        5280      3.13%      9.40% |        5264      3.12%     12.52% |        5264      3.12%     15.64% |        5272      3.13%     18.76% |        5287      3.13%     21.90% |        5243      3.11%     25.01% |        5279      3.13%     28.13% |        5253      3.11%     31.25% |        5270      3.12%     34.37% |        5249      3.11%     37.49% |        5296      3.14%     40.63% |        5279      3.13%     43.75% |        5291      3.14%     46.89% |        5305      3.15%     50.04% |        5325      3.16%     53.19% |        5281      3.13%     56.32% |        5248      3.11%     59.44% |        5247      3.11%     62.55% |        5270      3.12%     65.67% |        5264      3.12%     68.79% |        5260      3.12%     71.91% |        5257      3.12%     75.03% |        5258      3.12%     78.14% |        5270      3.12%     81.27% |        5259      3.12%     84.39% |        5258      3.12%     87.50% |        5296      3.14%     90.64% |        5248      3.11%     93.75% |        5268      3.12%     96.88% |        5266      3.12%    100.00% # Number of accesses per bank
system.ruby.dir_cntrl0.memBuffer.memBankCount::total       168674                       # Number of accesses per bank

system.ruby.dir_cntrl1.memBuffer.memReq        168704                       # Total number of memory requests
system.ruby.dir_cntrl1.memBuffer.memRead       118135                       # Number of memory reads
system.ruby.dir_cntrl1.memBuffer.memWrite        50569                       # Number of memory writes
system.ruby.dir_cntrl1.memBuffer.memRefresh       512367                       # Number of memory refreshes
system.ruby.dir_cntrl1.memBuffer.memWaitCycles       132934                       # Delay stalled at the head of the bank queue
system.ruby.dir_cntrl1.memBuffer.memInputQ          287                       # Delay in the input queue
system.ruby.dir_cntrl1.memBuffer.memBankQ         1012                       # Delay behind the head of the bank queue
system.ruby.dir_cntrl1.memBuffer.totalStalls       134233                       # Total number of stall cycles
system.ruby.dir_cntrl1.memBuffer.stallsPerReq     0.795672                       # Expected number of stall cycles per request
system.ruby.dir_cntrl1.memBuffer.memBankBusy       122225                       # memory stalls due to busy bank
system.ruby.dir_cntrl1.memBuffer.memBusBusy         6672                       # memory stalls due to busy bus
system.ruby.dir_cntrl1.memBuffer.memReadWriteBusy         1180                       # memory stalls due to read write turnaround
system.ruby.dir_cntrl1.memBuffer.memDataBusBusy          869                       # memory stalls due to read read turnaround
system.ruby.dir_cntrl1.memBuffer.memArbWait         1988                       # memory stalls due to arbitration
system.ruby.dir_cntrl1.memBuffer.memBankCount |        5278      3.13%      3.13% |        5264      3.12%      6.25% |        5289      3.14%      9.38% |        5270      3.12%     12.51% |        5294      3.14%     15.65% |        5273      3.13%     18.77% |        5299      3.14%     21.91% |        5316      3.15%     25.06% |        5260      3.12%     28.18% |        5266      3.12%     31.30% |        5255      3.11%     34.42% |        5243      3.11%     37.53% |        5295      3.14%     40.66% |        5222      3.10%     43.76% |        5288      3.13%     46.89% |        5311      3.15%     50.04% |        5313      3.15%     53.19% |        5290      3.14%     56.33% |        5288      3.13%     59.46% |        5289      3.14%     62.60% |        5276      3.13%     65.72% |        5263      3.12%     68.84% |        5245      3.11%     71.95% |        5230      3.10%     75.05% |        5274      3.13%     78.18% |        5273      3.13%     81.30% |        5265      3.12%     84.43% |        5256      3.12%     87.54% |        5228      3.10%     90.64% |        5251      3.11%     93.75% |        5277      3.13%     96.88% |        5263      3.12%    100.00% # Number of accesses per bank
system.ruby.dir_cntrl1.memBuffer.memBankCount::total       168704                       # Number of accesses per bank

system.ruby.dir_cntrl2.memBuffer.memReq        168627                       # Total number of memory requests
system.ruby.dir_cntrl2.memBuffer.memRead       118103                       # Number of memory reads
system.ruby.dir_cntrl2.memBuffer.memWrite        50524                       # Number of memory writes
system.ruby.dir_cntrl2.memBuffer.memRefresh       512374                       # Number of memory refreshes
system.ruby.dir_cntrl2.memBuffer.memWaitCycles       141350                       # Delay stalled at the head of the bank queue
system.ruby.dir_cntrl2.memBuffer.memInputQ          269                       # Delay in the input queue
system.ruby.dir_cntrl2.memBuffer.memBankQ         1495                       # Delay behind the head of the bank queue
system.ruby.dir_cntrl2.memBuffer.totalStalls       143114                       # Total number of stall cycles
system.ruby.dir_cntrl2.memBuffer.stallsPerReq     0.848702                       # Expected number of stall cycles per request
system.ruby.dir_cntrl2.memBuffer.memBankBusy       130297                       # memory stalls due to busy bank
system.ruby.dir_cntrl2.memBuffer.memBusBusy         6689                       # memory stalls due to busy bus
system.ruby.dir_cntrl2.memBuffer.memReadWriteBusy         1286                       # memory stalls due to read write turnaround
system.ruby.dir_cntrl2.memBuffer.memDataBusBusy         1162                       # memory stalls due to read read turnaround
system.ruby.dir_cntrl2.memBuffer.memArbWait         1916                       # memory stalls due to arbitration
system.ruby.dir_cntrl2.memBuffer.memBankCount |        5305      3.15%      3.15% |        5280      3.13%      6.28% |        5276      3.13%      9.41% |        5293      3.14%     12.54% |        5281      3.13%     15.68% |        5292      3.14%     18.81% |        5318      3.15%     21.97% |        5299      3.14%     25.11% |        5266      3.12%     28.23% |        5240      3.11%     31.34% |        5252      3.11%     34.46% |        5283      3.13%     37.59% |        5257      3.12%     40.71% |        5260      3.12%     43.83% |        5270      3.13%     46.95% |        5276      3.13%     50.08% |        5274      3.13%     53.21% |        5266      3.12%     56.33% |        5249      3.11%     59.44% |        5250      3.11%     62.56% |        5258      3.12%     65.67% |        5260      3.12%     68.79% |        5283      3.13%     71.93% |        5244      3.11%     75.04% |        5273      3.13%     78.16% |        5248      3.11%     81.28% |        5276      3.13%     84.40% |        5268      3.12%     87.53% |        5275      3.13%     90.66% |        5256      3.12%     93.77% |        5245      3.11%     96.88% |        5254      3.12%    100.00% # Number of accesses per bank
system.ruby.dir_cntrl2.memBuffer.memBankCount::total       168627                       # Number of accesses per bank

system.ruby.dir_cntrl3.memBuffer.memReq        168713                       # Total number of memory requests
system.ruby.dir_cntrl3.memBuffer.memRead       118147                       # Number of memory reads
system.ruby.dir_cntrl3.memBuffer.memWrite        50566                       # Number of memory writes
system.ruby.dir_cntrl3.memBuffer.memRefresh       512523                       # Number of memory refreshes
system.ruby.dir_cntrl3.memBuffer.memWaitCycles       126006                       # Delay stalled at the head of the bank queue
system.ruby.dir_cntrl3.memBuffer.memInputQ          265                       # Delay in the input queue
system.ruby.dir_cntrl3.memBuffer.memBankQ         1419                       # Delay behind the head of the bank queue
system.ruby.dir_cntrl3.memBuffer.totalStalls       127690                       # Total number of stall cycles
system.ruby.dir_cntrl3.memBuffer.stallsPerReq     0.756847                       # Expected number of stall cycles per request
system.ruby.dir_cntrl3.memBuffer.memBankBusy       115422                       # memory stalls due to busy bank
system.ruby.dir_cntrl3.memBuffer.memBusBusy         6486                       # memory stalls due to busy bus
system.ruby.dir_cntrl3.memBuffer.memReadWriteBusy         1190                       # memory stalls due to read write turnaround
system.ruby.dir_cntrl3.memBuffer.memDataBusBusy          924                       # memory stalls due to read read turnaround
system.ruby.dir_cntrl3.memBuffer.memArbWait         1984                       # memory stalls due to arbitration
system.ruby.dir_cntrl3.memBuffer.memBankCount |        5284      3.13%      3.13% |        5282      3.13%      6.26% |        5290      3.14%      9.40% |        5297      3.14%     12.54% |        5273      3.13%     15.66% |        5281      3.13%     18.79% |        5296      3.14%     21.93% |        5295      3.14%     25.07% |        5274      3.13%     28.20% |        5285      3.13%     31.33% |        5252      3.11%     34.44% |        5240      3.11%     37.55% |        5257      3.12%     40.66% |        5289      3.13%     43.80% |        5255      3.11%     46.91% |        5283      3.13%     50.05% |        5282      3.13%     53.18% |        5274      3.13%     56.30% |        5265      3.12%     59.42% |        5272      3.12%     62.55% |        5278      3.13%     65.68% |        5233      3.10%     68.78% |        5272      3.12%     71.90% |        5272      3.12%     75.03% |        5268      3.12%     78.15% |        5270      3.12%     81.27% |        5259      3.12%     84.39% |        5246      3.11%     87.50% |        5229      3.10%     90.60% |        5275      3.13%     93.73% |        5274      3.13%     96.85% |        5311      3.15%    100.00% # Number of accesses per bank
system.ruby.dir_cntrl3.memBuffer.memBankCount::total       168713                       # Number of accesses per bank

system.cpu0.workload.num_syscalls                  71                       # Number of system calls
system.cpu0.numCycles                       286092662                       # number of cpu cycles simulated
system.cpu0.numWorkItemsStarted                     0                       # number of work items this cpu started
system.cpu0.numWorkItemsCompleted                   0                       # number of work items this cpu completed
system.cpu0.committedInsts                   21913488                       # Number of instructions committed
system.cpu0.committedOps                     33585817                       # Number of ops (including micro ops) committed
system.cpu0.num_int_alu_accesses             14312926                       # Number of integer alu accesses
system.cpu0.num_fp_alu_accesses              22704956                       # Number of float alu accesses
system.cpu0.num_func_calls                       1162                       # number of times a function call or return occured
system.cpu0.num_conditional_control_insts       681685                       # number of instructions that are conditional controls
system.cpu0.num_int_insts                    14312926                       # number of integer instructions
system.cpu0.num_fp_insts                     22704956                       # number of float instructions
system.cpu0.num_int_register_reads           29410511                       # number of times the integer registers were read
system.cpu0.num_int_register_writes          18159770                       # number of times the integer registers were written
system.cpu0.num_fp_register_reads            50880222                       # number of times the floating registers were read
system.cpu0.num_fp_register_writes           20990699                       # number of times the floating registers were written
system.cpu0.num_mem_refs                      2579511                       # number of memory refs
system.cpu0.num_load_insts                    1630051                       # Number of load instructions
system.cpu0.num_store_insts                    949460                       # Number of store instructions
system.cpu0.num_idle_cycles                         0                       # Number of idle cycles
system.cpu0.num_busy_cycles                 286092662                       # Number of busy cycles
system.cpu0.not_idle_fraction                       1                       # Percentage of non-idle cycles
system.cpu0.idle_fraction                           0                       # Percentage of idle cycles
system.cpu1.numCycles                       285751214                       # number of cpu cycles simulated
system.cpu1.numWorkItemsStarted                     0                       # number of work items this cpu started
system.cpu1.numWorkItemsCompleted                   0                       # number of work items this cpu completed
system.cpu1.committedInsts                   21943025                       # Number of instructions committed
system.cpu1.committedOps                     33593094                       # Number of ops (including micro ops) committed
system.cpu1.num_int_alu_accesses             14325378                       # Number of integer alu accesses
system.cpu1.num_fp_alu_accesses              22687847                       # Number of float alu accesses
system.cpu1.num_func_calls                        124                       # number of times a function call or return occured
system.cpu1.num_conditional_control_insts       691025                       # number of instructions that are conditional controls
system.cpu1.num_int_insts                    14325378                       # number of integer instructions
system.cpu1.num_fp_insts                     22687847                       # number of float instructions
system.cpu1.num_int_register_reads           29514260                       # number of times the integer registers were read
system.cpu1.num_int_register_writes          18149777                       # number of times the integer registers were written
system.cpu1.num_fp_register_reads            50862245                       # number of times the floating registers were read
system.cpu1.num_fp_register_writes           20977754                       # number of times the floating registers were written
system.cpu1.num_mem_refs                      2603324                       # number of memory refs
system.cpu1.num_load_insts                    1645926                       # Number of load instructions
system.cpu1.num_store_insts                    957398                       # Number of store instructions
system.cpu1.num_idle_cycles              648169.495477                       # Number of idle cycles
system.cpu1.num_busy_cycles              285103044.504523                       # Number of busy cycles
system.cpu1.not_idle_fraction                0.997732                       # Percentage of non-idle cycles
system.cpu1.idle_fraction                    0.002268                       # Percentage of idle cycles
system.cpu2.numCycles                       285749542                       # number of cpu cycles simulated
system.cpu2.numWorkItemsStarted                     0                       # number of work items this cpu started
system.cpu2.numWorkItemsCompleted                   0                       # number of work items this cpu completed
system.cpu2.committedInsts                   21941273                       # Number of instructions committed
system.cpu2.committedOps                     33597205                       # Number of ops (including micro ops) committed
system.cpu2.num_int_alu_accesses             14328855                       # Number of integer alu accesses
system.cpu2.num_fp_alu_accesses              22688581                       # Number of float alu accesses
system.cpu2.num_func_calls                         70                       # number of times a function call or return occured
system.cpu2.num_conditional_control_insts       689843                       # number of instructions that are conditional controls
system.cpu2.num_int_insts                    14328855                       # number of integer instructions
system.cpu2.num_fp_insts                     22688581                       # number of float instructions
system.cpu2.num_int_register_reads           29508850                       # number of times the integer registers were read
system.cpu2.num_int_register_writes          18165259                       # number of times the integer registers were written
system.cpu2.num_fp_register_reads            50863903                       # number of times the floating registers were read
system.cpu2.num_fp_register_writes           20978432                       # number of times the floating registers were written
system.cpu2.num_mem_refs                      2601657                       # number of memory refs
system.cpu2.num_load_insts                    1645694                       # Number of load instructions
system.cpu2.num_store_insts                    955963                       # Number of store instructions
system.cpu2.num_idle_cycles              669685.862078                       # Number of idle cycles
system.cpu2.num_busy_cycles              285079856.137922                       # Number of busy cycles
system.cpu2.not_idle_fraction                0.997656                       # Percentage of non-idle cycles
system.cpu2.idle_fraction                    0.002344                       # Percentage of idle cycles
system.cpu3.numCycles                       285749746                       # number of cpu cycles simulated
system.cpu3.numWorkItemsStarted                     0                       # number of work items this cpu started
system.cpu3.numWorkItemsCompleted                   0                       # number of work items this cpu completed
system.cpu3.committedInsts                   21871189                       # Number of instructions committed
system.cpu3.committedOps                     33514473                       # Number of ops (including micro ops) committed
system.cpu3.num_int_alu_accesses             14241970                       # Number of integer alu accesses
system.cpu3.num_fp_alu_accesses              22700910                       # Number of float alu accesses
system.cpu3.num_func_calls                        118                       # number of times a function call or return occured
system.cpu3.num_conditional_control_insts       673082                       # number of instructions that are conditional controls
system.cpu3.num_int_insts                    14241970                       # number of integer instructions
system.cpu3.num_fp_insts                     22700910                       # number of float instructions
system.cpu3.num_int_register_reads           29209322                       # number of times the integer registers were read
system.cpu3.num_int_register_writes          18092075                       # number of times the integer registers were written
system.cpu3.num_fp_register_reads            50878331                       # number of times the floating registers were read
system.cpu3.num_fp_register_writes           20988710                       # number of times the floating registers were written
system.cpu3.num_mem_refs                      2558488                       # number of memory refs
system.cpu3.num_load_insts                    1618070                       # Number of load instructions
system.cpu3.num_store_insts                    940418                       # Number of store instructions
system.cpu3.num_idle_cycles              670197.726482                       # Number of idle cycles
system.cpu3.num_busy_cycles              285079548.273518                       # Number of busy cycles
system.cpu3.not_idle_fraction                0.997655                       # Percentage of non-idle cycles
system.cpu3.idle_fraction                    0.002345                       # Percentage of idle cycles
system.ruby.l1_cntrl0.Load               |     1101362     24.89%     24.89% |     1119557     25.30%     50.18% |     1117270     25.24%     75.43% |     1087591     24.57%    100.00%
system.ruby.l1_cntrl0.Load::total             4425780                      

system.ruby.l1_cntrl0.Ifetch             |    30880288     25.00%     25.00% |    30904569     25.02%     50.02% |    30905598     25.02%     75.04% |    30828381     24.96%    100.00%
system.ruby.l1_cntrl0.Ifetch::total         123518836                      

system.ruby.l1_cntrl0.Store              |     1478149     24.98%     24.98% |     1483767     25.08%     50.06% |     1484387     25.09%     75.14% |     1470897     24.86%    100.00%
system.ruby.l1_cntrl0.Store::total            5917200                      

system.ruby.l1_cntrl0.L1_Replacement     |      231254     25.04%     25.04% |      229724     24.87%     49.92% |      230428     24.95%     74.87% |      232109     25.13%    100.00%
system.ruby.l1_cntrl0.L1_Replacement::total       923515                      

system.ruby.l1_cntrl0.Own_GETX           |           2     66.67%     66.67% |           1     33.33%    100.00% |           0      0.00%    100.00% |           0      0.00%    100.00%
system.ruby.l1_cntrl0.Own_GETX::total               3                      

system.ruby.l1_cntrl0.Fwd_GETX           |         545     28.19%     28.19% |         302     15.62%     43.82% |         554     28.66%     72.48% |         532     27.52%    100.00%
system.ruby.l1_cntrl0.Fwd_GETX::total            1933                      

system.ruby.l1_cntrl0.Fwd_GETS           |         983     24.52%     24.52% |        1141     28.46%     52.98% |        1323     33.00%     85.98% |         562     14.02%    100.00%
system.ruby.l1_cntrl0.Fwd_GETS::total            4009                      

system.ruby.l1_cntrl0.Inv                |          19     24.36%     24.36% |          27     34.62%     58.97% |          25     32.05%     91.03% |           7      8.97%    100.00%
system.ruby.l1_cntrl0.Inv::total                   78                      

system.ruby.l1_cntrl0.Ack                |         831     42.14%     42.14% |         281     14.25%     56.39% |         537     27.23%     83.62% |         323     16.38%    100.00%
system.ruby.l1_cntrl0.Ack::total                 1972                      

system.ruby.l1_cntrl0.Data               |         622     36.80%     36.80% |         180     10.65%     47.46% |         205     12.13%     59.59% |         683     40.41%    100.00%
system.ruby.l1_cntrl0.Data::total                1690                      

system.ruby.l1_cntrl0.Exclusive_Data     |      232485     25.07%     25.07% |      230685     24.88%     49.95% |      231603     24.98%     74.93% |      232507     25.07%    100.00%
system.ruby.l1_cntrl0.Exclusive_Data::total       927280                      

system.ruby.l1_cntrl0.Writeback_Ack      |         548     48.20%     48.20% |          27      2.37%     50.57% |          32      2.81%     53.39% |         530     46.61%    100.00%
system.ruby.l1_cntrl0.Writeback_Ack::total         1137                      

system.ruby.l1_cntrl0.Writeback_Ack_Data |      230501     25.02%     25.02% |      229289     24.89%     49.91% |      230228     24.99%     74.91% |      231130     25.09%    100.00%
system.ruby.l1_cntrl0.Writeback_Ack_Data::total       921148                      

system.ruby.l1_cntrl0.All_acks           |      154836     24.98%     24.98% |      154515     24.93%     49.91% |      155041     25.01%     74.92% |      155448     25.08%    100.00%
system.ruby.l1_cntrl0.All_acks::total          619840                      

system.ruby.l1_cntrl0.Use_Timeout        |      232486     25.07%     25.07% |      230686     24.88%     49.95% |      231603     24.98%     74.93% |      232507     25.07%    100.00%
system.ruby.l1_cntrl0.Use_Timeout::total       927282                      

system.ruby.l1_cntrl0.I.Load             |       77581     25.19%     25.19% |       76193     24.74%     49.93% |       76620     24.88%     74.81% |       77587     25.19%    100.00%
system.ruby.l1_cntrl0.I.Load::total            307981                      

system.ruby.l1_cntrl0.I.Ifetch           |         692     60.07%     60.07% |         158     13.72%     73.78% |         147     12.76%     86.55% |         155     13.45%    100.00%
system.ruby.l1_cntrl0.I.Ifetch::total            1152                      

system.ruby.l1_cntrl0.I.Store            |      154818     24.98%     24.98% |      154504     24.93%     49.91% |      155031     25.01%     74.92% |      155432     25.08%    100.00%
system.ruby.l1_cntrl0.I.Store::total           619785                      

system.ruby.l1_cntrl0.I.L1_Replacement   |         205     16.67%     16.67% |         408     33.17%     49.84% |         168     13.66%     63.50% |         449     36.50%    100.00%
system.ruby.l1_cntrl0.I.L1_Replacement::total         1230                      

system.ruby.l1_cntrl0.S.Load             |      150518     32.85%     32.85% |       15253      3.33%     36.18% |      146514     31.98%     68.15% |      145922     31.85%    100.00%
system.ruby.l1_cntrl0.S.Load::total            458207                      

system.ruby.l1_cntrl0.S.Ifetch           |     6904707      7.46%      7.46% |    30888326     33.37%     40.82% |    30888869     33.37%     74.19% |    23894468     25.81%    100.00%
system.ruby.l1_cntrl0.S.Ifetch::total        92576370                      

system.ruby.l1_cntrl0.S.Store            |          16     30.77%     30.77% |          10     19.23%     50.00% |          10     19.23%     69.23% |          16     30.77%    100.00%
system.ruby.l1_cntrl0.S.Store::total               52                      

system.ruby.l1_cntrl0.S.L1_Replacement   |         549     48.20%     48.20% |          27      2.37%     50.57% |          32      2.81%     53.38% |         531     46.62%    100.00%
system.ruby.l1_cntrl0.S.L1_Replacement::total         1139                      

system.ruby.l1_cntrl0.S.Fwd_GETS         |           0      0.00%      0.00% |           1    100.00%    100.00% |           0      0.00%    100.00% |           0      0.00%    100.00%
system.ruby.l1_cntrl0.S.Fwd_GETS::total             1                      

system.ruby.l1_cntrl0.S.Inv              |          19     24.36%     24.36% |          27     34.62%     58.97% |          25     32.05%     91.03% |           7      8.97%    100.00%
system.ruby.l1_cntrl0.S.Inv::total                 78                      

system.ruby.l1_cntrl0.O.Load             |          32      0.02%      0.02% |      145467     89.47%     89.48% |       16061      9.88%     99.36% |        1036      0.64%    100.00%
system.ruby.l1_cntrl0.O.Load::total            162596                      

system.ruby.l1_cntrl0.O.Ifetch           |    23900355     77.56%     77.56% |       10158      0.03%     77.59% |       15646      0.05%     77.64% |     6891101     22.36%    100.00%
system.ruby.l1_cntrl0.O.Ifetch::total        30817260                      

system.ruby.l1_cntrl0.O.Store            |           2     66.67%     66.67% |           1     33.33%    100.00% |           0      0.00%    100.00% |           0      0.00%    100.00%
system.ruby.l1_cntrl0.O.Store::total                3                      

system.ruby.l1_cntrl0.O.L1_Replacement   |          51      5.95%      5.95% |         271     31.62%     37.57% |         529     61.73%     99.30% |           6      0.70%    100.00%
system.ruby.l1_cntrl0.O.L1_Replacement::total          857                      

system.ruby.l1_cntrl0.O.Fwd_GETX         |           7     11.67%     11.67% |          24     40.00%     51.67% |          24     40.00%     91.67% |           5      8.33%    100.00%
system.ruby.l1_cntrl0.O.Fwd_GETX::total            60                      

system.ruby.l1_cntrl0.O.Fwd_GETS         |         193     31.64%     31.64% |          74     12.13%     43.77% |         288     47.21%     90.98% |          55      9.02%    100.00%
system.ruby.l1_cntrl0.O.Fwd_GETS::total           610                      

system.ruby.l1_cntrl0.M.Load             |      467859     25.21%     25.21% |      460541     24.82%     50.03% |      462574     24.93%     74.96% |      464634     25.04%    100.00%
system.ruby.l1_cntrl0.M.Load::total           1855608                      

system.ruby.l1_cntrl0.M.Ifetch           |       70916     59.07%     59.07% |        5741      4.78%     63.85% |         900      0.75%     64.60% |       42495     35.40%    100.00%
system.ruby.l1_cntrl0.M.Ifetch::total          120052                      

system.ruby.l1_cntrl0.M.Store            |        1586     25.20%     25.20% |        1510     23.99%     49.19% |        1565     24.86%     74.05% |        1633     25.95%    100.00%
system.ruby.l1_cntrl0.M.Store::total             6294                      

system.ruby.l1_cntrl0.M.L1_Replacement   |       66554     25.27%     25.27% |       65371     24.82%     50.09% |       65387     24.83%     74.92% |       66041     25.08%    100.00%
system.ruby.l1_cntrl0.M.L1_Replacement::total       263353                      

system.ruby.l1_cntrl0.M.Fwd_GETX         |           4      1.45%      1.45% |           6      2.18%      3.64% |           3      1.09%      4.73% |         262     95.27%    100.00%
system.ruby.l1_cntrl0.M.Fwd_GETX::total           275                      

system.ruby.l1_cntrl0.M.Fwd_GETS         |         127     11.94%     11.94% |         335     31.48%     43.42% |         564     53.01%     96.43% |          38      3.57%    100.00%
system.ruby.l1_cntrl0.M.Fwd_GETS::total          1064                      

system.ruby.l1_cntrl0.M_W.Load           |         863     39.32%     39.32% |         306     13.94%     53.26% |         329     14.99%     68.25% |         697     31.75%    100.00%
system.ruby.l1_cntrl0.M_W.Load::total            2195                      

system.ruby.l1_cntrl0.M_W.Ifetch         |        3618     90.40%     90.40% |         186      4.65%     95.05% |          36      0.90%     95.95% |         162      4.05%    100.00%
system.ruby.l1_cntrl0.M_W.Ifetch::total          4002                      

system.ruby.l1_cntrl0.M_W.Store          |        8842     24.89%     24.89% |        8815     24.82%     49.71% |        8914     25.10%     74.81% |        8949     25.19%    100.00%
system.ruby.l1_cntrl0.M_W.Store::total          35520                      

system.ruby.l1_cntrl0.M_W.Fwd_GETX       |           0      0.00%      0.00% |           8     53.33%     53.33% |           4     26.67%     80.00% |           3     20.00%    100.00%
system.ruby.l1_cntrl0.M_W.Fwd_GETX::total           15                      

system.ruby.l1_cntrl0.M_W.Fwd_GETS       |          63     17.90%     17.90% |         115     32.67%     50.57% |         107     30.40%     80.97% |          67     19.03%    100.00%
system.ruby.l1_cntrl0.M_W.Fwd_GETS::total          352                      

system.ruby.l1_cntrl0.M_W.Use_Timeout    |       68808     25.30%     25.30% |       67356     24.77%     50.07% |       67648     24.88%     74.95% |       68110     25.05%    100.00%
system.ruby.l1_cntrl0.M_W.Use_Timeout::total       271922                      

system.ruby.l1_cntrl0.MM.Load            |      404206     24.68%     24.68% |      421518     25.73%     50.41% |      414895     25.33%     75.74% |      397425     24.26%    100.00%
system.ruby.l1_cntrl0.MM.Load::total          1638044                      

system.ruby.l1_cntrl0.MM.Store           |     1301407     24.97%     24.97% |     1308184     25.10%     50.07% |     1307798     25.09%     75.17% |     1294121     24.83%    100.00%
system.ruby.l1_cntrl0.MM.Store::total         5211510                      

system.ruby.l1_cntrl0.MM.L1_Replacement  |      163895     24.95%     24.95% |      163647     24.91%     49.86% |      164312     25.01%     74.87% |      165082     25.13%    100.00%
system.ruby.l1_cntrl0.MM.L1_Replacement::total       656936                      

system.ruby.l1_cntrl0.MM.Fwd_GETX        |         526     33.80%     33.80% |         257     16.52%     50.32% |         515     33.10%     83.42% |         258     16.58%    100.00%
system.ruby.l1_cntrl0.MM.Fwd_GETX::total         1556                      

system.ruby.l1_cntrl0.MM.Fwd_GETS        |         488     29.06%     29.06% |         561     33.41%     62.48% |         314     18.70%     81.18% |         316     18.82%    100.00%
system.ruby.l1_cntrl0.MM.Fwd_GETS::total         1679                      

system.ruby.l1_cntrl0.MM_W.Load          |         303     26.37%     26.37% |         279     24.28%     50.65% |         277     24.11%     74.76% |         290     25.24%    100.00%
system.ruby.l1_cntrl0.MM_W.Load::total           1149                      

system.ruby.l1_cntrl0.MM_W.Store         |       11478     26.07%     26.07% |       10743     24.40%     50.46% |       11069     25.14%     75.60% |       10746     24.40%    100.00%
system.ruby.l1_cntrl0.MM_W.Store::total         44036                      

system.ruby.l1_cntrl0.MM_W.Fwd_GETX      |           8     29.63%     29.63% |           7     25.93%     55.56% |           8     29.63%     85.19% |           4     14.81%    100.00%
system.ruby.l1_cntrl0.MM_W.Fwd_GETX::total           27                      

system.ruby.l1_cntrl0.MM_W.Fwd_GETS      |         112     36.96%     36.96% |          55     18.15%     55.12% |          50     16.50%     71.62% |          86     28.38%    100.00%
system.ruby.l1_cntrl0.MM_W.Fwd_GETS::total          303                      

system.ruby.l1_cntrl0.MM_W.Use_Timeout   |      163678     24.98%     24.98% |      163330     24.92%     49.90% |      163955     25.02%     74.92% |      164397     25.08%    100.00%
system.ruby.l1_cntrl0.MM_W.Use_Timeout::total       655360                      

system.ruby.l1_cntrl0.IM.Ack             |         789     42.67%     42.67% |         264     14.28%     56.95% |         523     28.29%     85.24% |         273     14.76%    100.00%
system.ruby.l1_cntrl0.IM.Ack::total              1849                      

system.ruby.l1_cntrl0.IM.Exclusive_Data  |      154818     24.98%     24.98% |      154504     24.93%     49.91% |      155031     25.01%     74.92% |      155432     25.08%    100.00%
system.ruby.l1_cntrl0.IM.Exclusive_Data::total       619785                      

system.ruby.l1_cntrl0.SM.Ack             |          22     28.57%     28.57% |          10     12.99%     41.56% |          14     18.18%     59.74% |          31     40.26%    100.00%
system.ruby.l1_cntrl0.SM.Ack::total                77                      

system.ruby.l1_cntrl0.SM.Exclusive_Data  |          16     30.77%     30.77% |          10     19.23%     50.00% |          10     19.23%     69.23% |          16     30.77%    100.00%
system.ruby.l1_cntrl0.SM.Exclusive_Data::total           52                      

system.ruby.l1_cntrl0.OM.Own_GETX        |           2     66.67%     66.67% |           1     33.33%    100.00% |           0      0.00%    100.00% |           0      0.00%    100.00%
system.ruby.l1_cntrl0.OM.Own_GETX::total            3                      

system.ruby.l1_cntrl0.OM.Ack             |          20     43.48%     43.48% |           7     15.22%     58.70% |           0      0.00%     58.70% |          19     41.30%    100.00%
system.ruby.l1_cntrl0.OM.Ack::total                46                      

system.ruby.l1_cntrl0.OM.All_acks        |      154836     24.98%     24.98% |      154515     24.93%     49.91% |      155041     25.01%     74.92% |      155448     25.08%    100.00%
system.ruby.l1_cntrl0.OM.All_acks::total       619840                      

system.ruby.l1_cntrl0.IS.Data            |         622     36.80%     36.80% |         180     10.65%     47.46% |         205     12.13%     59.59% |         683     40.41%    100.00%
system.ruby.l1_cntrl0.IS.Data::total             1690                      

system.ruby.l1_cntrl0.IS.Exclusive_Data  |       77651     25.26%     25.26% |       76171     24.78%     50.03% |       76562     24.90%     74.94% |       77059     25.06%    100.00%
system.ruby.l1_cntrl0.IS.Exclusive_Data::total       307443                      

system.ruby.l1_cntrl0.SI.Writeback_Ack   |         548     48.20%     48.20% |          27      2.37%     50.57% |          32      2.81%     53.39% |         530     46.61%    100.00%
system.ruby.l1_cntrl0.SI.Writeback_Ack::total         1137                      

system.ruby.l1_cntrl0.SI.Writeback_Ack_Data |           1     50.00%     50.00% |           0      0.00%     50.00% |           0      0.00%     50.00% |           1     50.00%    100.00%
system.ruby.l1_cntrl0.SI.Writeback_Ack_Data::total            2                      

system.ruby.l1_cntrl0.OI.Writeback_Ack_Data |          51      5.95%      5.95% |         271     31.62%     37.57% |         529     61.73%     99.30% |           6      0.70%    100.00%
system.ruby.l1_cntrl0.OI.Writeback_Ack_Data::total          857                      

system.ruby.l1_cntrl0.MI.Writeback_Ack_Data |      230449     25.04%     25.04% |      229018     24.89%     49.93% |      229699     24.96%     74.89% |      231123     25.11%    100.00%
system.ruby.l1_cntrl0.MI.Writeback_Ack_Data::total       920289                      

system.ruby.l2_cntrl0.L1_GETS            |       77373     24.95%     24.95% |       78142     25.20%     50.15% |       77302     24.93%     75.07% |       77298     24.93%    100.00%
system.ruby.l2_cntrl0.L1_GETS::total           310115                      

system.ruby.l2_cntrl0.L1_GETX            |      155993     25.16%     25.16% |      154843     24.98%     50.14% |      154430     24.91%     75.05% |      154637     24.95%    100.00%
system.ruby.l2_cntrl0.L1_GETX::total           619903                      

system.ruby.l2_cntrl0.L1_PUTO            |         220     25.67%     25.67% |         213     24.85%     50.53% |         207     24.15%     74.68% |         217     25.32%    100.00%
system.ruby.l2_cntrl0.L1_PUTO::total              857                      

system.ruby.l2_cntrl0.L1_PUTX            |      230021     24.99%     24.99% |      230197     25.01%     50.01% |      229894     24.98%     74.99% |      230177     25.01%    100.00%
system.ruby.l2_cntrl0.L1_PUTX::total           920289                      

system.ruby.l2_cntrl0.L1_PUTS_only       |         215     26.03%     26.03% |         204     24.70%     50.73% |         198     23.97%     74.70% |         209     25.30%    100.00%
system.ruby.l2_cntrl0.L1_PUTS_only::total          826                      

system.ruby.l2_cntrl0.L1_PUTS            |          78     24.76%     24.76% |          70     22.22%     46.98% |          69     21.90%     68.89% |          98     31.11%    100.00%
system.ruby.l2_cntrl0.L1_PUTS::total              315                      

system.ruby.l2_cntrl0.All_Acks           |       52901     25.01%     25.01% |       52908     25.01%     50.02% |       52842     24.98%     75.00% |       52892     25.00%    100.00%
system.ruby.l2_cntrl0.All_Acks::total          211543                      

system.ruby.l2_cntrl0.Data               |       52901     25.01%     25.01% |       52908     25.01%     50.02% |       52842     24.98%     75.00% |       52892     25.00%    100.00%
system.ruby.l2_cntrl0.Data::total              211543                      

system.ruby.l2_cntrl0.Data_Exclusive     |       65213     24.99%     24.99% |       65227     25.00%     49.99% |       65261     25.01%     74.99% |       65255     25.01%    100.00%
system.ruby.l2_cntrl0.Data_Exclusive::total       260956                      

system.ruby.l2_cntrl0.L1_WBCLEANDATA     |       64948     25.00%     25.00% |       64935     24.99%     49.99% |       64943     25.00%     74.99% |       64972     25.01%    100.00%
system.ruby.l2_cntrl0.L1_WBCLEANDATA::total       259798                      

system.ruby.l2_cntrl0.L1_WBDIRTYDATA     |      165293     24.99%     24.99% |      165475     25.02%     50.01% |      165159     24.97%     74.99% |      165423     25.01%    100.00%
system.ruby.l2_cntrl0.L1_WBDIRTYDATA::total       661350                      

system.ruby.l2_cntrl0.Writeback_Ack      |      113485     25.00%     25.00% |      113495     25.00%     50.00% |      113466     25.00%     75.00% |      113503     25.00%    100.00%
system.ruby.l2_cntrl0.Writeback_Ack::total       453949                      

system.ruby.l2_cntrl0.Unblock            |         698     24.69%     24.69% |         764     27.03%     51.72% |         649     22.96%     74.67% |         716     25.33%    100.00%
system.ruby.l2_cntrl0.Unblock::total             2827                      

system.ruby.l2_cntrl0.Exclusive_Unblock  |      232885     25.11%     25.11% |      231661     24.98%     50.10% |      231233     24.94%     75.03% |      231504     24.97%    100.00%
system.ruby.l2_cntrl0.Exclusive_Unblock::total       927283                      

system.ruby.l2_cntrl0.L2_Replacement     |      113485     25.00%     25.00% |      113495     25.00%     50.00% |      113467     25.00%     75.00% |      113504     25.00%    100.00%
system.ruby.l2_cntrl0.L2_Replacement::total       453951                      

system.ruby.l2_cntrl0.NP.L1_GETS         |       65213     24.99%     24.99% |       65227     25.00%     49.99% |       65261     25.01%     74.99% |       65255     25.01%    100.00%
system.ruby.l2_cntrl0.NP.L1_GETS::total        260956                      

system.ruby.l2_cntrl0.NP.L1_GETX         |       52901     25.01%     25.01% |       52908     25.01%     50.02% |       52842     24.98%     75.00% |       52892     25.00%    100.00%
system.ruby.l2_cntrl0.NP.L1_GETX::total        211543                      

system.ruby.l2_cntrl0.ILS.L1_GETS        |           0      0.00%      0.00% |           1    100.00%    100.00% |           0      0.00%    100.00% |           0      0.00%    100.00%
system.ruby.l2_cntrl0.ILS.L1_GETS::total            1                      

system.ruby.l2_cntrl0.ILS.L1_PUTS        |           0      0.00%      0.00% |           0      0.00%      0.00% |           1     50.00%     50.00% |           1     50.00%    100.00%
system.ruby.l2_cntrl0.ILS.L1_PUTS::total            2                      

system.ruby.l2_cntrl0.ILX.L1_GETS        |         668     24.35%     24.35% |         770     28.07%     52.42% |         657     23.95%     76.38% |         648     23.62%    100.00%
system.ruby.l2_cntrl0.ILX.L1_GETS::total         2743                      

system.ruby.l2_cntrl0.ILX.L1_GETX        |        1596     87.17%     87.17% |          91      4.97%     92.14% |          70      3.82%     95.96% |          74      4.04%    100.00%
system.ruby.l2_cntrl0.ILX.L1_GETX::total         1831                      

system.ruby.l2_cntrl0.ILX.L1_PUTX        |      230021     24.99%     24.99% |      230197     25.01%     50.01% |      229894     24.98%     74.99% |      230177     25.01%    100.00%
system.ruby.l2_cntrl0.ILX.L1_PUTX::total       920289                      

system.ruby.l2_cntrl0.ILOX.L1_GETS       |           5     55.56%     55.56% |           2     22.22%     77.78% |           0      0.00%     77.78% |           2     22.22%    100.00%
system.ruby.l2_cntrl0.ILOX.L1_GETS::total            9                      

system.ruby.l2_cntrl0.ILOX.L1_PUTO       |          73     27.34%     27.34% |          67     25.09%     52.43% |          65     24.34%     76.78% |          62     23.22%    100.00%
system.ruby.l2_cntrl0.ILOX.L1_PUTO::total          267                      

system.ruby.l2_cntrl0.ILOSX.L1_GETS      |         142     23.63%     23.63% |         180     29.95%     53.58% |         131     21.80%     75.37% |         148     24.63%    100.00%
system.ruby.l2_cntrl0.ILOSX.L1_GETS::total          601                      

system.ruby.l2_cntrl0.ILOSX.L1_GETX      |           1      1.59%      1.59% |          50     79.37%     80.95% |          11     17.46%     98.41% |           1      1.59%    100.00%
system.ruby.l2_cntrl0.ILOSX.L1_GETX::total           63                      

system.ruby.l2_cntrl0.ILOSX.L1_PUTO      |         147     24.92%     24.92% |         146     24.75%     49.66% |         142     24.07%     73.73% |         155     26.27%    100.00%
system.ruby.l2_cntrl0.ILOSX.L1_PUTO::total          590                      

system.ruby.l2_cntrl0.ILOSX.L1_PUTS_only |          78     28.16%     28.16% |          69     24.91%     53.07% |          66     23.83%     76.90% |          64     23.10%    100.00%
system.ruby.l2_cntrl0.ILOSX.L1_PUTS_only::total          277                      

system.ruby.l2_cntrl0.ILOSX.L1_PUTS      |          48     29.45%     29.45% |          40     24.54%     53.99% |          33     20.25%     74.23% |          42     25.77%    100.00%
system.ruby.l2_cntrl0.ILOSX.L1_PUTS::total          163                      

system.ruby.l2_cntrl0.S.L2_Replacement   |           0      0.00%      0.00% |           0      0.00%      0.00% |           1     50.00%     50.00% |           1     50.00%    100.00%
system.ruby.l2_cntrl0.S.L2_Replacement::total            2                      

system.ruby.l2_cntrl0.OLSX.L1_GETS       |           1      6.67%      6.67% |           4     26.67%     33.33% |           2     13.33%     46.67% |           8     53.33%    100.00%
system.ruby.l2_cntrl0.OLSX.L1_GETS::total           15                      

system.ruby.l2_cntrl0.OLSX.L1_GETX       |           0      0.00%      0.00% |           2    100.00%    100.00% |           0      0.00%    100.00% |           0      0.00%    100.00%
system.ruby.l2_cntrl0.OLSX.L1_GETX::total            2                      

system.ruby.l2_cntrl0.OLSX.L1_PUTS_only  |         137     25.05%     25.05% |         135     24.68%     49.73% |         131     23.95%     73.67% |         144     26.33%    100.00%
system.ruby.l2_cntrl0.OLSX.L1_PUTS_only::total          547                      

system.ruby.l2_cntrl0.OLSX.L1_PUTS       |          30     20.41%     20.41% |          30     20.41%     40.82% |          34     23.13%     63.95% |          53     36.05%    100.00%
system.ruby.l2_cntrl0.OLSX.L1_PUTS::total          147                      

system.ruby.l2_cntrl0.OLSX.L2_Replacement |           1     20.00%     20.00% |           1     20.00%     40.00% |           1     20.00%     60.00% |           2     40.00%    100.00%
system.ruby.l2_cntrl0.OLSX.L2_Replacement::total            5                      

system.ruby.l2_cntrl0.SLS.L1_PUTS_only   |           0      0.00%      0.00% |           0      0.00%      0.00% |           1     50.00%     50.00% |           1     50.00%    100.00%
system.ruby.l2_cntrl0.SLS.L1_PUTS_only::total            2                      

system.ruby.l2_cntrl0.SLS.L1_PUTS        |           0      0.00%      0.00% |           0      0.00%      0.00% |           1    100.00%    100.00% |           0      0.00%    100.00%
system.ruby.l2_cntrl0.SLS.L1_PUTS::total            1                      

system.ruby.l2_cntrl0.M.L1_GETS          |       11270     25.15%     25.15% |       11180     24.95%     50.10% |       11140     24.86%     74.96% |       11218     25.04%    100.00%
system.ruby.l2_cntrl0.M.L1_GETS::total          44808                      

system.ruby.l2_cntrl0.M.L1_GETX          |      101493     24.97%     24.97% |      101736     25.03%     50.01% |      101502     24.98%     74.98% |      101670     25.02%    100.00%
system.ruby.l2_cntrl0.M.L1_GETX::total         406401                      

system.ruby.l2_cntrl0.M.L2_Replacement   |      113484     25.00%     25.00% |      113494     25.00%     50.00% |      113465     25.00%     75.00% |      113501     25.00%    100.00%
system.ruby.l2_cntrl0.M.L2_Replacement::total       453944                      

system.ruby.l2_cntrl0.ILOXW.L1_WBCLEANDATA |           1    100.00%    100.00% |           0      0.00%    100.00% |           0      0.00%    100.00% |           0      0.00%    100.00%
system.ruby.l2_cntrl0.ILOXW.L1_WBCLEANDATA::total            1                      

system.ruby.l2_cntrl0.ILOXW.L1_WBDIRTYDATA |          72     27.07%     27.07% |          67     25.19%     52.26% |          65     24.44%     76.69% |          62     23.31%    100.00%
system.ruby.l2_cntrl0.ILOXW.L1_WBDIRTYDATA::total          266                      

system.ruby.l2_cntrl0.ILOXW.Unblock      |          78     28.16%     28.16% |          69     24.91%     53.07% |          66     23.83%     76.90% |          64     23.10%    100.00%
system.ruby.l2_cntrl0.ILOXW.Unblock::total          277                      

system.ruby.l2_cntrl0.ILOSXW.L1_WBCLEANDATA |          16     26.23%     26.23% |          10     16.39%     42.62% |          12     19.67%     62.30% |          23     37.70%    100.00%
system.ruby.l2_cntrl0.ILOSXW.L1_WBCLEANDATA::total           61                      

system.ruby.l2_cntrl0.ILOSXW.L1_WBDIRTYDATA |         131     24.76%     24.76% |         136     25.71%     50.47% |         130     24.57%     75.05% |         132     24.95%    100.00%
system.ruby.l2_cntrl0.ILOSXW.L1_WBDIRTYDATA::total          529                      

system.ruby.l2_cntrl0.ILOSXW.Unblock     |          48     29.45%     29.45% |          40     24.54%     53.99% |          33     20.25%     74.23% |          42     25.77%    100.00%
system.ruby.l2_cntrl0.ILOSXW.Unblock::total          163                      

system.ruby.l2_cntrl0.SLSW.Unblock       |           0      0.00%      0.00% |           0      0.00%      0.00% |           1    100.00%    100.00% |           0      0.00%    100.00%
system.ruby.l2_cntrl0.SLSW.Unblock::total            1                      

system.ruby.l2_cntrl0.ILSW.L1_WBCLEANDATA |           0      0.00%      0.00% |           0      0.00%      0.00% |           1     50.00%     50.00% |           1     50.00%    100.00%
system.ruby.l2_cntrl0.ILSW.L1_WBCLEANDATA::total            2                      

system.ruby.l2_cntrl0.SW.Unblock         |           0      0.00%      0.00% |           0      0.00%      0.00% |           1     50.00%     50.00% |           1     50.00%    100.00%
system.ruby.l2_cntrl0.SW.Unblock::total             2                      

system.ruby.l2_cntrl0.OXW.Unblock        |         137     25.05%     25.05% |         135     24.68%     49.73% |         131     23.95%     73.67% |         144     26.33%    100.00%
system.ruby.l2_cntrl0.OXW.Unblock::total          547                      

system.ruby.l2_cntrl0.OLSXW.L1_PUTS      |           0      0.00%      0.00% |           0      0.00%      0.00% |           0      0.00%      0.00% |           2    100.00%    100.00%
system.ruby.l2_cntrl0.OLSXW.L1_PUTS::total            2                      

system.ruby.l2_cntrl0.OLSXW.Unblock      |          30     20.41%     20.41% |          30     20.41%     40.82% |          34     23.13%     63.95% |          53     36.05%    100.00%
system.ruby.l2_cntrl0.OLSXW.Unblock::total          147                      

system.ruby.l2_cntrl0.ILXW.L1_WBCLEANDATA |       64931     25.00%     25.00% |       64925     25.00%     50.00% |       64930     25.00%     74.99% |       64948     25.01%    100.00%
system.ruby.l2_cntrl0.ILXW.L1_WBCLEANDATA::total       259734                      

system.ruby.l2_cntrl0.ILXW.L1_WBDIRTYDATA |      165090     24.99%     24.99% |      165272     25.02%     50.01% |      164964     24.97%     74.99% |      165229     25.01%    100.00%
system.ruby.l2_cntrl0.ILXW.L1_WBDIRTYDATA::total       660555                      

system.ruby.l2_cntrl0.IFLS.Unblock       |           0      0.00%      0.00% |           1    100.00%    100.00% |           0      0.00%    100.00% |           0      0.00%    100.00%
system.ruby.l2_cntrl0.IFLS.Unblock::total            1                      

system.ruby.l2_cntrl0.IFLOX.Unblock      |           5     55.56%     55.56% |           2     22.22%     77.78% |           0      0.00%     77.78% |           2     22.22%    100.00%
system.ruby.l2_cntrl0.IFLOX.Unblock::total            9                      

system.ruby.l2_cntrl0.IFLOX.Exclusive_Unblock |           0      0.00%      0.00% |           2    100.00%    100.00% |           0      0.00%    100.00% |           0      0.00%    100.00%
system.ruby.l2_cntrl0.IFLOX.Exclusive_Unblock::total            2                      

system.ruby.l2_cntrl0.IFLOXX.L1_GETS     |          34      4.17%      4.17% |         680     83.33%     87.50% |          87     10.66%     98.16% |          15      1.84%    100.00%
system.ruby.l2_cntrl0.IFLOXX.L1_GETS::total          816                      

system.ruby.l2_cntrl0.IFLOXX.L1_GETX     |           2      4.08%      4.08% |          44     89.80%     93.88% |           3      6.12%    100.00% |           0      0.00%    100.00%
system.ruby.l2_cntrl0.IFLOXX.L1_GETX::total           49                      

system.ruby.l2_cntrl0.IFLOXX.Unblock     |         257     24.15%     24.15% |         303     28.48%     52.63% |         250     23.50%     76.13% |         254     23.87%    100.00%
system.ruby.l2_cntrl0.IFLOXX.Unblock::total         1064                      

system.ruby.l2_cntrl0.IFLOXX.Exclusive_Unblock |        2007     57.18%     57.18% |         558     15.90%     73.08% |         477     13.59%     86.67% |         468     13.33%    100.00%
system.ruby.l2_cntrl0.IFLOXX.Exclusive_Unblock::total         3510                      

system.ruby.l2_cntrl0.IFLOSX.L1_GETS     |          10     29.41%     29.41% |          19     55.88%     85.29% |           5     14.71%    100.00% |           0      0.00%    100.00%
system.ruby.l2_cntrl0.IFLOSX.L1_GETS::total           34                      

system.ruby.l2_cntrl0.IFLOSX.L1_GETX     |           0      0.00%      0.00% |          12     85.71%     85.71% |           2     14.29%    100.00% |           0      0.00%    100.00%
system.ruby.l2_cntrl0.IFLOSX.L1_GETX::total           14                      

system.ruby.l2_cntrl0.IFLOSX.Unblock     |         142     23.63%     23.63% |         180     29.95%     53.58% |         131     21.80%     75.37% |         148     24.63%    100.00%
system.ruby.l2_cntrl0.IFLOSX.Unblock::total          601                      

system.ruby.l2_cntrl0.IFLXO.L1_GETS      |           0      0.00%      0.00% |          68     89.47%     89.47% |           8     10.53%    100.00% |           0      0.00%    100.00%
system.ruby.l2_cntrl0.IFLXO.L1_GETS::total           76                      

system.ruby.l2_cntrl0.IFLXO.Exclusive_Unblock |           1      1.59%      1.59% |          50     79.37%     80.95% |          11     17.46%     98.41% |           1      1.59%    100.00%
system.ruby.l2_cntrl0.IFLXO.Exclusive_Unblock::total           63                      

system.ruby.l2_cntrl0.IGS.L1_GETS        |          30     53.57%     53.57% |          11     19.64%     73.21% |          11     19.64%     92.86% |           4      7.14%    100.00%
system.ruby.l2_cntrl0.IGS.L1_GETS::total           56                      

system.ruby.l2_cntrl0.IGS.Data_Exclusive |       65213     24.99%     24.99% |       65227     25.00%     49.99% |       65261     25.01%     74.99% |       65255     25.01%    100.00%
system.ruby.l2_cntrl0.IGS.Data_Exclusive::total       260956                      

system.ruby.l2_cntrl0.IGS.Exclusive_Unblock |       65213     24.99%     24.99% |       65227     25.00%     49.99% |       65261     25.01%     74.99% |       65255     25.01%    100.00%
system.ruby.l2_cntrl0.IGS.Exclusive_Unblock::total       260956                      

system.ruby.l2_cntrl0.IGM.Data           |       52901     25.01%     25.01% |       52908     25.01%     50.02% |       52842     24.98%     75.00% |       52892     25.00%    100.00%
system.ruby.l2_cntrl0.IGM.Data::total          211543                      

system.ruby.l2_cntrl0.IGMO.All_Acks      |       52901     25.01%     25.01% |       52908     25.01%     50.02% |       52842     24.98%     75.00% |       52892     25.00%    100.00%
system.ruby.l2_cntrl0.IGMO.All_Acks::total       211543                      

system.ruby.l2_cntrl0.IGMO.Exclusive_Unblock |       52901     25.01%     25.01% |       52908     25.01%     50.02% |       52842     24.98%     75.00% |       52892     25.00%    100.00%
system.ruby.l2_cntrl0.IGMO.Exclusive_Unblock::total       211543                      

system.ruby.l2_cntrl0.MM.Exclusive_Unblock |      101493     24.97%     24.97% |      101736     25.03%     50.01% |      101502     24.98%     74.98% |      101670     25.02%    100.00%
system.ruby.l2_cntrl0.MM.Exclusive_Unblock::total       406401                      

system.ruby.l2_cntrl0.OO.Exclusive_Unblock |       11270     25.15%     25.15% |       11180     24.95%     50.10% |       11140     24.86%     74.96% |       11218     25.04%    100.00%
system.ruby.l2_cntrl0.OO.Exclusive_Unblock::total        44808                      

system.ruby.l2_cntrl0.OLSXS.Unblock      |           1      6.67%      6.67% |           4     26.67%     33.33% |           2     13.33%     46.67% |           8     53.33%    100.00%
system.ruby.l2_cntrl0.OLSXS.Unblock::total           15                      

system.ruby.l2_cntrl0.MI.Writeback_Ack   |      113484     25.00%     25.00% |      113494     25.00%     50.00% |      113465     25.00%     75.00% |      113501     25.00%    100.00%
system.ruby.l2_cntrl0.MI.Writeback_Ack::total       453944                      

system.ruby.l2_cntrl0.OLSI.Writeback_Ack |           1     20.00%     20.00% |           1     20.00%     40.00% |           1     20.00%     60.00% |           2     40.00%    100.00%
system.ruby.l2_cntrl0.OLSI.Writeback_Ack::total            5                      

system.ruby.dir_cntrl0.GETX              |       52901     25.01%     25.01% |       52908     25.01%     50.02% |       52842     24.98%     75.00% |       52892     25.00%    100.00%
system.ruby.dir_cntrl0.GETX::total             211543                      

system.ruby.dir_cntrl0.GETS              |       65213     24.99%     24.99% |       65227     25.00%     49.99% |       65261     25.01%     74.99% |       65255     25.01%    100.00%
system.ruby.dir_cntrl0.GETS::total             260956                      

system.ruby.dir_cntrl0.PUTX              |      113484     25.00%     25.00% |      113494     25.00%     50.00% |      113465     25.00%     75.00% |      113501     25.00%    100.00%
system.ruby.dir_cntrl0.PUTX::total             453944                      

system.ruby.dir_cntrl0.PUTO_SHARERS      |           1     20.00%     20.00% |           1     20.00%     40.00% |           1     20.00%     60.00% |           2     40.00%    100.00%
system.ruby.dir_cntrl0.PUTO_SHARERS::total            5                      

system.ruby.dir_cntrl0.Exclusive_Unblock |      118114     25.00%     25.00% |      118135     25.00%     50.00% |      118103     25.00%     75.00% |      118147     25.00%    100.00%
system.ruby.dir_cntrl0.Exclusive_Unblock::total       472499                      

system.ruby.dir_cntrl0.Clean_Writeback   |       62925     25.00%     25.00% |       62926     25.00%     49.99% |       62942     25.00%     75.00% |       62937     25.00%    100.00%
system.ruby.dir_cntrl0.Clean_Writeback::total       251730                      

system.ruby.dir_cntrl0.Dirty_Writeback   |       50560     25.00%     25.00% |       50569     25.01%     50.01% |       50524     24.98%     74.99% |       50566     25.01%    100.00%
system.ruby.dir_cntrl0.Dirty_Writeback::total       202219                      

system.ruby.dir_cntrl0.Memory_Data       |      118114     25.00%     25.00% |      118135     25.00%     50.00% |      118103     25.00%     75.00% |      118147     25.00%    100.00%
system.ruby.dir_cntrl0.Memory_Data::total       472499                      

system.ruby.dir_cntrl0.Memory_Ack        |       50560     25.00%     25.00% |       50569     25.01%     50.01% |       50524     24.98%     74.99% |       50566     25.01%    100.00%
system.ruby.dir_cntrl0.Memory_Ack::total       202219                      

system.ruby.dir_cntrl0.I.GETX            |       52901     25.01%     25.01% |       52908     25.01%     50.02% |       52842     24.98%     75.00% |       52892     25.00%    100.00%
system.ruby.dir_cntrl0.I.GETX::total           211543                      

system.ruby.dir_cntrl0.I.GETS            |       65213     24.99%     24.99% |       65227     25.00%     49.99% |       65261     25.01%     74.99% |       65255     25.01%    100.00%
system.ruby.dir_cntrl0.I.GETS::total           260956                      

system.ruby.dir_cntrl0.I.Memory_Ack      |       50560     25.00%     25.00% |       50569     25.01%     50.01% |       50524     24.99%     75.00% |       50563     25.00%    100.00%
system.ruby.dir_cntrl0.I.Memory_Ack::total       202216                      

system.ruby.dir_cntrl0.S.Memory_Ack      |           0      0.00%      0.00% |           0      0.00%      0.00% |           0      0.00%      0.00% |           1    100.00%    100.00%
system.ruby.dir_cntrl0.S.Memory_Ack::total            1                      

system.ruby.dir_cntrl0.M.PUTX            |      113484     25.00%     25.00% |      113494     25.00%     50.00% |      113465     25.00%     75.00% |      113501     25.00%    100.00%
system.ruby.dir_cntrl0.M.PUTX::total           453944                      

system.ruby.dir_cntrl0.M.PUTO_SHARERS    |           1     20.00%     20.00% |           1     20.00%     40.00% |           1     20.00%     60.00% |           2     40.00%    100.00%
system.ruby.dir_cntrl0.M.PUTO_SHARERS::total            5                      

system.ruby.dir_cntrl0.IS.Exclusive_Unblock |       65213     24.99%     24.99% |       65227     25.00%     49.99% |       65261     25.01%     74.99% |       65255     25.01%    100.00%
system.ruby.dir_cntrl0.IS.Exclusive_Unblock::total       260956                      

system.ruby.dir_cntrl0.IS.Memory_Data    |       65213     24.99%     24.99% |       65227     25.00%     49.99% |       65261     25.01%     74.99% |       65255     25.01%    100.00%
system.ruby.dir_cntrl0.IS.Memory_Data::total       260956                      

system.ruby.dir_cntrl0.MM.Exclusive_Unblock |       52901     25.01%     25.01% |       52908     25.01%     50.02% |       52842     24.98%     75.00% |       52892     25.00%    100.00%
system.ruby.dir_cntrl0.MM.Exclusive_Unblock::total       211543                      

system.ruby.dir_cntrl0.MM.Memory_Data    |       52901     25.01%     25.01% |       52908     25.01%     50.02% |       52842     24.98%     75.00% |       52892     25.00%    100.00%
system.ruby.dir_cntrl0.MM.Memory_Data::total       211543                      

system.ruby.dir_cntrl0.MM.Memory_Ack     |           0      0.00%      0.00% |           0      0.00%      0.00% |           0      0.00%      0.00% |           2    100.00%    100.00%
system.ruby.dir_cntrl0.MM.Memory_Ack::total            2                      

system.ruby.dir_cntrl0.MI.Clean_Writeback |       62924     25.00%     25.00% |       62925     25.00%     49.99% |       62941     25.00%     75.00% |       62936     25.00%    100.00%
system.ruby.dir_cntrl0.MI.Clean_Writeback::total       251726                      

system.ruby.dir_cntrl0.MI.Dirty_Writeback |       50560     25.00%     25.00% |       50569     25.01%     50.01% |       50524     24.98%     74.99% |       50565     25.01%    100.00%
system.ruby.dir_cntrl0.MI.Dirty_Writeback::total       202218                      

system.ruby.dir_cntrl0.MIS.Clean_Writeback |           1     25.00%     25.00% |           1     25.00%     50.00% |           1     25.00%     75.00% |           1     25.00%    100.00%
system.ruby.dir_cntrl0.MIS.Clean_Writeback::total            4                      

system.ruby.dir_cntrl0.MIS.Dirty_Writeback |           0      0.00%      0.00% |           0      0.00%      0.00% |           0      0.00%      0.00% |           1    100.00%    100.00%
system.ruby.dir_cntrl0.MIS.Dirty_Writeback::total            1                      


---------- End Simulation Statistics   ----------
