
---------- Begin Simulation Statistics ----------
sim_seconds                                  0.066175                       # Number of seconds simulated
sim_ticks                                 66175482000                       # Number of ticks simulated
final_tick                                66175482000                       # Number of ticks from beginning of simulation (restored from checkpoints and never reset)
sim_freq                                 1000000000000                       # Frequency of simulated ticks
host_inst_rate                                 144161                       # Simulator instruction rate (inst/s)
host_op_rate                                   144161                       # Simulator op (including micro ops) rate (op/s)
host_tick_rate                               16289730                       # Simulator tick rate (ticks/s)
host_mem_usage                                 371240                       # Number of bytes of host memory used
host_seconds                                  4062.41                       # Real time elapsed on the host
sim_insts                                   585640231                       # Number of instructions simulated
sim_ops                                     585640231                       # Number of ops (including micro ops) simulated
system.physmem.bytes_read::cpu0.inst           228736                       # Number of bytes read from this memory
system.physmem.bytes_read::cpu0.data          1438336                       # Number of bytes read from this memory
system.physmem.bytes_read::cpu1.inst            18240                       # Number of bytes read from this memory
system.physmem.bytes_read::cpu1.data           719808                       # Number of bytes read from this memory
system.physmem.bytes_read::cpu2.inst             3584                       # Number of bytes read from this memory
system.physmem.bytes_read::cpu2.data           734720                       # Number of bytes read from this memory
system.physmem.bytes_read::cpu3.inst             8128                       # Number of bytes read from this memory
system.physmem.bytes_read::cpu3.data           754688                       # Number of bytes read from this memory
system.physmem.bytes_read::total              3906240                       # Number of bytes read from this memory
system.physmem.bytes_inst_read::cpu0.inst       228736                       # Number of instructions bytes read from this memory
system.physmem.bytes_inst_read::cpu1.inst        18240                       # Number of instructions bytes read from this memory
system.physmem.bytes_inst_read::cpu2.inst         3584                       # Number of instructions bytes read from this memory
system.physmem.bytes_inst_read::cpu3.inst         8128                       # Number of instructions bytes read from this memory
system.physmem.bytes_inst_read::total          258688                       # Number of instructions bytes read from this memory
system.physmem.bytes_written::writebacks      2397696                       # Number of bytes written to this memory
system.physmem.bytes_written::total           2397696                       # Number of bytes written to this memory
system.physmem.num_reads::cpu0.inst              3574                       # Number of read requests responded to by this memory
system.physmem.num_reads::cpu0.data             22474                       # Number of read requests responded to by this memory
system.physmem.num_reads::cpu1.inst               285                       # Number of read requests responded to by this memory
system.physmem.num_reads::cpu1.data             11247                       # Number of read requests responded to by this memory
system.physmem.num_reads::cpu2.inst                56                       # Number of read requests responded to by this memory
system.physmem.num_reads::cpu2.data             11480                       # Number of read requests responded to by this memory
system.physmem.num_reads::cpu3.inst               127                       # Number of read requests responded to by this memory
system.physmem.num_reads::cpu3.data             11792                       # Number of read requests responded to by this memory
system.physmem.num_reads::total                 61035                       # Number of read requests responded to by this memory
system.physmem.num_writes::writebacks           37464                       # Number of write requests responded to by this memory
system.physmem.num_writes::total                37464                       # Number of write requests responded to by this memory
system.physmem.bw_read::cpu0.inst             3456507                       # Total read bandwidth from this memory (bytes/s)
system.physmem.bw_read::cpu0.data            21735180                       # Total read bandwidth from this memory (bytes/s)
system.physmem.bw_read::cpu1.inst              275631                       # Total read bandwidth from this memory (bytes/s)
system.physmem.bw_read::cpu1.data            10877261                       # Total read bandwidth from this memory (bytes/s)
system.physmem.bw_read::cpu2.inst               54159                       # Total read bandwidth from this memory (bytes/s)
system.physmem.bw_read::cpu2.data            11102601                       # Total read bandwidth from this memory (bytes/s)
system.physmem.bw_read::cpu3.inst              122825                       # Total read bandwidth from this memory (bytes/s)
system.physmem.bw_read::cpu3.data            11404345                       # Total read bandwidth from this memory (bytes/s)
system.physmem.bw_read::total                59028508                       # Total read bandwidth from this memory (bytes/s)
system.physmem.bw_inst_read::cpu0.inst        3456507                       # Instruction read bandwidth from this memory (bytes/s)
system.physmem.bw_inst_read::cpu1.inst         275631                       # Instruction read bandwidth from this memory (bytes/s)
system.physmem.bw_inst_read::cpu2.inst          54159                       # Instruction read bandwidth from this memory (bytes/s)
system.physmem.bw_inst_read::cpu3.inst         122825                       # Instruction read bandwidth from this memory (bytes/s)
system.physmem.bw_inst_read::total            3909122                       # Instruction read bandwidth from this memory (bytes/s)
system.physmem.bw_write::writebacks          36232392                       # Write bandwidth from this memory (bytes/s)
system.physmem.bw_write::total               36232392                       # Write bandwidth from this memory (bytes/s)
system.physmem.bw_total::writebacks          36232392                       # Total bandwidth to/from this memory (bytes/s)
system.physmem.bw_total::cpu0.inst            3456507                       # Total bandwidth to/from this memory (bytes/s)
system.physmem.bw_total::cpu0.data           21735180                       # Total bandwidth to/from this memory (bytes/s)
system.physmem.bw_total::cpu1.inst             275631                       # Total bandwidth to/from this memory (bytes/s)
system.physmem.bw_total::cpu1.data           10877261                       # Total bandwidth to/from this memory (bytes/s)
system.physmem.bw_total::cpu2.inst              54159                       # Total bandwidth to/from this memory (bytes/s)
system.physmem.bw_total::cpu2.data           11102601                       # Total bandwidth to/from this memory (bytes/s)
system.physmem.bw_total::cpu3.inst             122825                       # Total bandwidth to/from this memory (bytes/s)
system.physmem.bw_total::cpu3.data           11404345                       # Total bandwidth to/from this memory (bytes/s)
system.physmem.bw_total::total               95260900                       # Total bandwidth to/from this memory (bytes/s)
workload.num_syscalls                             806                       # Number of system calls
system.l2.replacements                          63480                       # number of replacements
system.l2.tagsinuse                       3684.006329                       # Cycle average of tags in use
system.l2.total_refs                           672998                       # Total number of references to valid blocks.
system.l2.sampled_refs                          67477                       # Sample count of references to valid blocks.
system.l2.avg_refs                           9.973739                       # Average number of references to valid blocks.
system.l2.warmup_cycle                    34145701000                       # Cycle when the warmup percentage was hit.
system.l2.occ_blocks::writebacks          1137.245738                       # Average occupied blocks per requestor
system.l2.occ_blocks::cpu0.inst            140.532826                       # Average occupied blocks per requestor
system.l2.occ_blocks::cpu0.data            668.155639                       # Average occupied blocks per requestor
system.l2.occ_blocks::cpu1.inst             18.195831                       # Average occupied blocks per requestor
system.l2.occ_blocks::cpu1.data            535.016501                       # Average occupied blocks per requestor
system.l2.occ_blocks::cpu2.inst              3.537335                       # Average occupied blocks per requestor
system.l2.occ_blocks::cpu2.data            550.706154                       # Average occupied blocks per requestor
system.l2.occ_blocks::cpu3.inst             12.595059                       # Average occupied blocks per requestor
system.l2.occ_blocks::cpu3.data            618.021245                       # Average occupied blocks per requestor
system.l2.occ_percent::writebacks            0.277648                       # Average percentage of cache occupancy
system.l2.occ_percent::cpu0.inst             0.034310                       # Average percentage of cache occupancy
system.l2.occ_percent::cpu0.data             0.163124                       # Average percentage of cache occupancy
system.l2.occ_percent::cpu1.inst             0.004442                       # Average percentage of cache occupancy
system.l2.occ_percent::cpu1.data             0.130619                       # Average percentage of cache occupancy
system.l2.occ_percent::cpu2.inst             0.000864                       # Average percentage of cache occupancy
system.l2.occ_percent::cpu2.data             0.134450                       # Average percentage of cache occupancy
system.l2.occ_percent::cpu3.inst             0.003075                       # Average percentage of cache occupancy
system.l2.occ_percent::cpu3.data             0.150884                       # Average percentage of cache occupancy
system.l2.occ_percent::total                 0.899416                       # Average percentage of cache occupancy
system.l2.ReadReq_hits::cpu0.inst              318398                       # number of ReadReq hits
system.l2.ReadReq_hits::cpu0.data               75190                       # number of ReadReq hits
system.l2.ReadReq_hits::cpu1.inst                 277                       # number of ReadReq hits
system.l2.ReadReq_hits::cpu1.data               65306                       # number of ReadReq hits
system.l2.ReadReq_hits::cpu2.inst                 541                       # number of ReadReq hits
system.l2.ReadReq_hits::cpu2.data               64288                       # number of ReadReq hits
system.l2.ReadReq_hits::cpu3.inst                 502                       # number of ReadReq hits
system.l2.ReadReq_hits::cpu3.data               66165                       # number of ReadReq hits
system.l2.ReadReq_hits::total                  590667                       # number of ReadReq hits
system.l2.Writeback_hits::writebacks           101338                       # number of Writeback hits
system.l2.Writeback_hits::total                101338                       # number of Writeback hits
system.l2.UpgradeReq_hits::cpu0.data              166                       # number of UpgradeReq hits
system.l2.UpgradeReq_hits::cpu1.data              168                       # number of UpgradeReq hits
system.l2.UpgradeReq_hits::cpu2.data              140                       # number of UpgradeReq hits
system.l2.UpgradeReq_hits::cpu3.data              143                       # number of UpgradeReq hits
system.l2.UpgradeReq_hits::total                  617                       # number of UpgradeReq hits
system.l2.SCUpgradeReq_hits::cpu2.data              1                       # number of SCUpgradeReq hits
system.l2.SCUpgradeReq_hits::cpu3.data              2                       # number of SCUpgradeReq hits
system.l2.SCUpgradeReq_hits::total                  3                       # number of SCUpgradeReq hits
system.l2.ReadExReq_hits::cpu0.data               249                       # number of ReadExReq hits
system.l2.ReadExReq_hits::cpu1.data                72                       # number of ReadExReq hits
system.l2.ReadExReq_hits::cpu2.data               130                       # number of ReadExReq hits
system.l2.ReadExReq_hits::cpu3.data                85                       # number of ReadExReq hits
system.l2.ReadExReq_hits::total                   536                       # number of ReadExReq hits
system.l2.demand_hits::cpu0.inst               318398                       # number of demand (read+write) hits
system.l2.demand_hits::cpu0.data                75439                       # number of demand (read+write) hits
system.l2.demand_hits::cpu1.inst                  277                       # number of demand (read+write) hits
system.l2.demand_hits::cpu1.data                65378                       # number of demand (read+write) hits
system.l2.demand_hits::cpu2.inst                  541                       # number of demand (read+write) hits
system.l2.demand_hits::cpu2.data                64418                       # number of demand (read+write) hits
system.l2.demand_hits::cpu3.inst                  502                       # number of demand (read+write) hits
system.l2.demand_hits::cpu3.data                66250                       # number of demand (read+write) hits
system.l2.demand_hits::total                   591203                       # number of demand (read+write) hits
system.l2.overall_hits::cpu0.inst              318398                       # number of overall hits
system.l2.overall_hits::cpu0.data               75439                       # number of overall hits
system.l2.overall_hits::cpu1.inst                 277                       # number of overall hits
system.l2.overall_hits::cpu1.data               65378                       # number of overall hits
system.l2.overall_hits::cpu2.inst                 541                       # number of overall hits
system.l2.overall_hits::cpu2.data               64418                       # number of overall hits
system.l2.overall_hits::cpu3.inst                 502                       # number of overall hits
system.l2.overall_hits::cpu3.data               66250                       # number of overall hits
system.l2.overall_hits::total                  591203                       # number of overall hits
system.l2.ReadReq_misses::cpu0.inst              3616                       # number of ReadReq misses
system.l2.ReadReq_misses::cpu0.data             13369                       # number of ReadReq misses
system.l2.ReadReq_misses::cpu1.inst               370                       # number of ReadReq misses
system.l2.ReadReq_misses::cpu1.data             10160                       # number of ReadReq misses
system.l2.ReadReq_misses::cpu2.inst               121                       # number of ReadReq misses
system.l2.ReadReq_misses::cpu2.data             10399                       # number of ReadReq misses
system.l2.ReadReq_misses::cpu3.inst               186                       # number of ReadReq misses
system.l2.ReadReq_misses::cpu3.data             10677                       # number of ReadReq misses
system.l2.ReadReq_misses::total                 48898                       # number of ReadReq misses
system.l2.UpgradeReq_misses::cpu0.data              8                       # number of UpgradeReq misses
system.l2.UpgradeReq_misses::cpu1.data              4                       # number of UpgradeReq misses
system.l2.UpgradeReq_misses::cpu2.data              2                       # number of UpgradeReq misses
system.l2.UpgradeReq_misses::cpu3.data              1                       # number of UpgradeReq misses
system.l2.UpgradeReq_misses::total                 15                       # number of UpgradeReq misses
system.l2.SCUpgradeReq_misses::cpu0.data            5                       # number of SCUpgradeReq misses
system.l2.SCUpgradeReq_misses::cpu2.data            1                       # number of SCUpgradeReq misses
system.l2.SCUpgradeReq_misses::cpu3.data            7                       # number of SCUpgradeReq misses
system.l2.SCUpgradeReq_misses::total               13                       # number of SCUpgradeReq misses
system.l2.ReadExReq_misses::cpu0.data            9126                       # number of ReadExReq misses
system.l2.ReadExReq_misses::cpu1.data            1125                       # number of ReadExReq misses
system.l2.ReadExReq_misses::cpu2.data            1129                       # number of ReadExReq misses
system.l2.ReadExReq_misses::cpu3.data            1150                       # number of ReadExReq misses
system.l2.ReadExReq_misses::total               12530                       # number of ReadExReq misses
system.l2.demand_misses::cpu0.inst               3616                       # number of demand (read+write) misses
system.l2.demand_misses::cpu0.data              22495                       # number of demand (read+write) misses
system.l2.demand_misses::cpu1.inst                370                       # number of demand (read+write) misses
system.l2.demand_misses::cpu1.data              11285                       # number of demand (read+write) misses
system.l2.demand_misses::cpu2.inst                121                       # number of demand (read+write) misses
system.l2.demand_misses::cpu2.data              11528                       # number of demand (read+write) misses
system.l2.demand_misses::cpu3.inst                186                       # number of demand (read+write) misses
system.l2.demand_misses::cpu3.data              11827                       # number of demand (read+write) misses
system.l2.demand_misses::total                  61428                       # number of demand (read+write) misses
system.l2.overall_misses::cpu0.inst              3616                       # number of overall misses
system.l2.overall_misses::cpu0.data             22495                       # number of overall misses
system.l2.overall_misses::cpu1.inst               370                       # number of overall misses
system.l2.overall_misses::cpu1.data             11285                       # number of overall misses
system.l2.overall_misses::cpu2.inst               121                       # number of overall misses
system.l2.overall_misses::cpu2.data             11528                       # number of overall misses
system.l2.overall_misses::cpu3.inst               186                       # number of overall misses
system.l2.overall_misses::cpu3.data             11827                       # number of overall misses
system.l2.overall_misses::total                 61428                       # number of overall misses
system.l2.ReadReq_miss_latency::cpu0.inst    187687000                       # number of ReadReq miss cycles
system.l2.ReadReq_miss_latency::cpu0.data    706528000                       # number of ReadReq miss cycles
system.l2.ReadReq_miss_latency::cpu1.inst     18745000                       # number of ReadReq miss cycles
system.l2.ReadReq_miss_latency::cpu1.data    538355000                       # number of ReadReq miss cycles
system.l2.ReadReq_miss_latency::cpu2.inst      5808000                       # number of ReadReq miss cycles
system.l2.ReadReq_miss_latency::cpu2.data    552382000                       # number of ReadReq miss cycles
system.l2.ReadReq_miss_latency::cpu3.inst      9264000                       # number of ReadReq miss cycles
system.l2.ReadReq_miss_latency::cpu3.data    565475000                       # number of ReadReq miss cycles
system.l2.ReadReq_miss_latency::total      2584244000                       # number of ReadReq miss cycles
system.l2.UpgradeReq_miss_latency::cpu0.data        52000                       # number of UpgradeReq miss cycles
system.l2.UpgradeReq_miss_latency::cpu1.data       213000                       # number of UpgradeReq miss cycles
system.l2.UpgradeReq_miss_latency::cpu2.data       105000                       # number of UpgradeReq miss cycles
system.l2.UpgradeReq_miss_latency::total       370000                       # number of UpgradeReq miss cycles
system.l2.ReadExReq_miss_latency::cpu0.data    481523000                       # number of ReadExReq miss cycles
system.l2.ReadExReq_miss_latency::cpu1.data     59272000                       # number of ReadExReq miss cycles
system.l2.ReadExReq_miss_latency::cpu2.data     59360000                       # number of ReadExReq miss cycles
system.l2.ReadExReq_miss_latency::cpu3.data     60390000                       # number of ReadExReq miss cycles
system.l2.ReadExReq_miss_latency::total     660545000                       # number of ReadExReq miss cycles
system.l2.demand_miss_latency::cpu0.inst    187687000                       # number of demand (read+write) miss cycles
system.l2.demand_miss_latency::cpu0.data   1188051000                       # number of demand (read+write) miss cycles
system.l2.demand_miss_latency::cpu1.inst     18745000                       # number of demand (read+write) miss cycles
system.l2.demand_miss_latency::cpu1.data    597627000                       # number of demand (read+write) miss cycles
system.l2.demand_miss_latency::cpu2.inst      5808000                       # number of demand (read+write) miss cycles
system.l2.demand_miss_latency::cpu2.data    611742000                       # number of demand (read+write) miss cycles
system.l2.demand_miss_latency::cpu3.inst      9264000                       # number of demand (read+write) miss cycles
system.l2.demand_miss_latency::cpu3.data    625865000                       # number of demand (read+write) miss cycles
system.l2.demand_miss_latency::total       3244789000                       # number of demand (read+write) miss cycles
system.l2.overall_miss_latency::cpu0.inst    187687000                       # number of overall miss cycles
system.l2.overall_miss_latency::cpu0.data   1188051000                       # number of overall miss cycles
system.l2.overall_miss_latency::cpu1.inst     18745000                       # number of overall miss cycles
system.l2.overall_miss_latency::cpu1.data    597627000                       # number of overall miss cycles
system.l2.overall_miss_latency::cpu2.inst      5808000                       # number of overall miss cycles
system.l2.overall_miss_latency::cpu2.data    611742000                       # number of overall miss cycles
system.l2.overall_miss_latency::cpu3.inst      9264000                       # number of overall miss cycles
system.l2.overall_miss_latency::cpu3.data    625865000                       # number of overall miss cycles
system.l2.overall_miss_latency::total      3244789000                       # number of overall miss cycles
system.l2.ReadReq_accesses::cpu0.inst          322014                       # number of ReadReq accesses(hits+misses)
system.l2.ReadReq_accesses::cpu0.data           88559                       # number of ReadReq accesses(hits+misses)
system.l2.ReadReq_accesses::cpu1.inst             647                       # number of ReadReq accesses(hits+misses)
system.l2.ReadReq_accesses::cpu1.data           75466                       # number of ReadReq accesses(hits+misses)
system.l2.ReadReq_accesses::cpu2.inst             662                       # number of ReadReq accesses(hits+misses)
system.l2.ReadReq_accesses::cpu2.data           74687                       # number of ReadReq accesses(hits+misses)
system.l2.ReadReq_accesses::cpu3.inst             688                       # number of ReadReq accesses(hits+misses)
system.l2.ReadReq_accesses::cpu3.data           76842                       # number of ReadReq accesses(hits+misses)
system.l2.ReadReq_accesses::total              639565                       # number of ReadReq accesses(hits+misses)
system.l2.Writeback_accesses::writebacks       101338                       # number of Writeback accesses(hits+misses)
system.l2.Writeback_accesses::total            101338                       # number of Writeback accesses(hits+misses)
system.l2.UpgradeReq_accesses::cpu0.data          174                       # number of UpgradeReq accesses(hits+misses)
system.l2.UpgradeReq_accesses::cpu1.data          172                       # number of UpgradeReq accesses(hits+misses)
system.l2.UpgradeReq_accesses::cpu2.data          142                       # number of UpgradeReq accesses(hits+misses)
system.l2.UpgradeReq_accesses::cpu3.data          144                       # number of UpgradeReq accesses(hits+misses)
system.l2.UpgradeReq_accesses::total              632                       # number of UpgradeReq accesses(hits+misses)
system.l2.SCUpgradeReq_accesses::cpu0.data            5                       # number of SCUpgradeReq accesses(hits+misses)
system.l2.SCUpgradeReq_accesses::cpu2.data            2                       # number of SCUpgradeReq accesses(hits+misses)
system.l2.SCUpgradeReq_accesses::cpu3.data            9                       # number of SCUpgradeReq accesses(hits+misses)
system.l2.SCUpgradeReq_accesses::total             16                       # number of SCUpgradeReq accesses(hits+misses)
system.l2.ReadExReq_accesses::cpu0.data          9375                       # number of ReadExReq accesses(hits+misses)
system.l2.ReadExReq_accesses::cpu1.data          1197                       # number of ReadExReq accesses(hits+misses)
system.l2.ReadExReq_accesses::cpu2.data          1259                       # number of ReadExReq accesses(hits+misses)
system.l2.ReadExReq_accesses::cpu3.data          1235                       # number of ReadExReq accesses(hits+misses)
system.l2.ReadExReq_accesses::total             13066                       # number of ReadExReq accesses(hits+misses)
system.l2.demand_accesses::cpu0.inst           322014                       # number of demand (read+write) accesses
system.l2.demand_accesses::cpu0.data            97934                       # number of demand (read+write) accesses
system.l2.demand_accesses::cpu1.inst              647                       # number of demand (read+write) accesses
system.l2.demand_accesses::cpu1.data            76663                       # number of demand (read+write) accesses
system.l2.demand_accesses::cpu2.inst              662                       # number of demand (read+write) accesses
system.l2.demand_accesses::cpu2.data            75946                       # number of demand (read+write) accesses
system.l2.demand_accesses::cpu3.inst              688                       # number of demand (read+write) accesses
system.l2.demand_accesses::cpu3.data            78077                       # number of demand (read+write) accesses
system.l2.demand_accesses::total               652631                       # number of demand (read+write) accesses
system.l2.overall_accesses::cpu0.inst          322014                       # number of overall (read+write) accesses
system.l2.overall_accesses::cpu0.data           97934                       # number of overall (read+write) accesses
system.l2.overall_accesses::cpu1.inst             647                       # number of overall (read+write) accesses
system.l2.overall_accesses::cpu1.data           76663                       # number of overall (read+write) accesses
system.l2.overall_accesses::cpu2.inst             662                       # number of overall (read+write) accesses
system.l2.overall_accesses::cpu2.data           75946                       # number of overall (read+write) accesses
system.l2.overall_accesses::cpu3.inst             688                       # number of overall (read+write) accesses
system.l2.overall_accesses::cpu3.data           78077                       # number of overall (read+write) accesses
system.l2.overall_accesses::total              652631                       # number of overall (read+write) accesses
system.l2.ReadReq_miss_rate::cpu0.inst       0.011229                       # miss rate for ReadReq accesses
system.l2.ReadReq_miss_rate::cpu0.data       0.150962                       # miss rate for ReadReq accesses
system.l2.ReadReq_miss_rate::cpu1.inst       0.571870                       # miss rate for ReadReq accesses
system.l2.ReadReq_miss_rate::cpu1.data       0.134630                       # miss rate for ReadReq accesses
system.l2.ReadReq_miss_rate::cpu2.inst       0.182779                       # miss rate for ReadReq accesses
system.l2.ReadReq_miss_rate::cpu2.data       0.139234                       # miss rate for ReadReq accesses
system.l2.ReadReq_miss_rate::cpu3.inst       0.270349                       # miss rate for ReadReq accesses
system.l2.ReadReq_miss_rate::cpu3.data       0.138947                       # miss rate for ReadReq accesses
system.l2.ReadReq_miss_rate::total           0.076455                       # miss rate for ReadReq accesses
system.l2.UpgradeReq_miss_rate::cpu0.data     0.045977                       # miss rate for UpgradeReq accesses
system.l2.UpgradeReq_miss_rate::cpu1.data     0.023256                       # miss rate for UpgradeReq accesses
system.l2.UpgradeReq_miss_rate::cpu2.data     0.014085                       # miss rate for UpgradeReq accesses
system.l2.UpgradeReq_miss_rate::cpu3.data     0.006944                       # miss rate for UpgradeReq accesses
system.l2.UpgradeReq_miss_rate::total        0.023734                       # miss rate for UpgradeReq accesses
system.l2.SCUpgradeReq_miss_rate::cpu0.data            1                       # miss rate for SCUpgradeReq accesses
system.l2.SCUpgradeReq_miss_rate::cpu2.data     0.500000                       # miss rate for SCUpgradeReq accesses
system.l2.SCUpgradeReq_miss_rate::cpu3.data     0.777778                       # miss rate for SCUpgradeReq accesses
system.l2.SCUpgradeReq_miss_rate::total      0.812500                       # miss rate for SCUpgradeReq accesses
system.l2.ReadExReq_miss_rate::cpu0.data     0.973440                       # miss rate for ReadExReq accesses
system.l2.ReadExReq_miss_rate::cpu1.data     0.939850                       # miss rate for ReadExReq accesses
system.l2.ReadExReq_miss_rate::cpu2.data     0.896743                       # miss rate for ReadExReq accesses
system.l2.ReadExReq_miss_rate::cpu3.data     0.931174                       # miss rate for ReadExReq accesses
system.l2.ReadExReq_miss_rate::total         0.958977                       # miss rate for ReadExReq accesses
system.l2.demand_miss_rate::cpu0.inst        0.011229                       # miss rate for demand accesses
system.l2.demand_miss_rate::cpu0.data        0.229696                       # miss rate for demand accesses
system.l2.demand_miss_rate::cpu1.inst        0.571870                       # miss rate for demand accesses
system.l2.demand_miss_rate::cpu1.data        0.147203                       # miss rate for demand accesses
system.l2.demand_miss_rate::cpu2.inst        0.182779                       # miss rate for demand accesses
system.l2.demand_miss_rate::cpu2.data        0.151792                       # miss rate for demand accesses
system.l2.demand_miss_rate::cpu3.inst        0.270349                       # miss rate for demand accesses
system.l2.demand_miss_rate::cpu3.data        0.151479                       # miss rate for demand accesses
system.l2.demand_miss_rate::total            0.094124                       # miss rate for demand accesses
system.l2.overall_miss_rate::cpu0.inst       0.011229                       # miss rate for overall accesses
system.l2.overall_miss_rate::cpu0.data       0.229696                       # miss rate for overall accesses
system.l2.overall_miss_rate::cpu1.inst       0.571870                       # miss rate for overall accesses
system.l2.overall_miss_rate::cpu1.data       0.147203                       # miss rate for overall accesses
system.l2.overall_miss_rate::cpu2.inst       0.182779                       # miss rate for overall accesses
system.l2.overall_miss_rate::cpu2.data       0.151792                       # miss rate for overall accesses
system.l2.overall_miss_rate::cpu3.inst       0.270349                       # miss rate for overall accesses
system.l2.overall_miss_rate::cpu3.data       0.151479                       # miss rate for overall accesses
system.l2.overall_miss_rate::total           0.094124                       # miss rate for overall accesses
system.l2.ReadReq_avg_miss_latency::cpu0.inst 51904.590708                       # average ReadReq miss latency
system.l2.ReadReq_avg_miss_latency::cpu0.data 52848.230982                       # average ReadReq miss latency
system.l2.ReadReq_avg_miss_latency::cpu1.inst 50662.162162                       # average ReadReq miss latency
system.l2.ReadReq_avg_miss_latency::cpu1.data 52987.696850                       # average ReadReq miss latency
system.l2.ReadReq_avg_miss_latency::cpu2.inst        48000                       # average ReadReq miss latency
system.l2.ReadReq_avg_miss_latency::cpu2.data 53118.761419                       # average ReadReq miss latency
system.l2.ReadReq_avg_miss_latency::cpu3.inst 49806.451613                       # average ReadReq miss latency
system.l2.ReadReq_avg_miss_latency::cpu3.data 52961.974337                       # average ReadReq miss latency
system.l2.ReadReq_avg_miss_latency::total 52849.687104                       # average ReadReq miss latency
system.l2.UpgradeReq_avg_miss_latency::cpu0.data         6500                       # average UpgradeReq miss latency
system.l2.UpgradeReq_avg_miss_latency::cpu1.data        53250                       # average UpgradeReq miss latency
system.l2.UpgradeReq_avg_miss_latency::cpu2.data        52500                       # average UpgradeReq miss latency
system.l2.UpgradeReq_avg_miss_latency::total 24666.666667                       # average UpgradeReq miss latency
system.l2.ReadExReq_avg_miss_latency::cpu0.data 52763.861495                       # average ReadExReq miss latency
system.l2.ReadExReq_avg_miss_latency::cpu1.data 52686.222222                       # average ReadExReq miss latency
system.l2.ReadExReq_avg_miss_latency::cpu2.data 52577.502214                       # average ReadExReq miss latency
system.l2.ReadExReq_avg_miss_latency::cpu3.data 52513.043478                       # average ReadExReq miss latency
system.l2.ReadExReq_avg_miss_latency::total 52717.079010                       # average ReadExReq miss latency
system.l2.demand_avg_miss_latency::cpu0.inst 51904.590708                       # average overall miss latency
system.l2.demand_avg_miss_latency::cpu0.data 52814.003112                       # average overall miss latency
system.l2.demand_avg_miss_latency::cpu1.inst 50662.162162                       # average overall miss latency
system.l2.demand_avg_miss_latency::cpu1.data 52957.642889                       # average overall miss latency
system.l2.demand_avg_miss_latency::cpu2.inst        48000                       # average overall miss latency
system.l2.demand_avg_miss_latency::cpu2.data 53065.752949                       # average overall miss latency
system.l2.demand_avg_miss_latency::cpu3.inst 49806.451613                       # average overall miss latency
system.l2.demand_avg_miss_latency::cpu3.data 52918.322482                       # average overall miss latency
system.l2.demand_avg_miss_latency::total 52822.637885                       # average overall miss latency
system.l2.overall_avg_miss_latency::cpu0.inst 51904.590708                       # average overall miss latency
system.l2.overall_avg_miss_latency::cpu0.data 52814.003112                       # average overall miss latency
system.l2.overall_avg_miss_latency::cpu1.inst 50662.162162                       # average overall miss latency
system.l2.overall_avg_miss_latency::cpu1.data 52957.642889                       # average overall miss latency
system.l2.overall_avg_miss_latency::cpu2.inst        48000                       # average overall miss latency
system.l2.overall_avg_miss_latency::cpu2.data 53065.752949                       # average overall miss latency
system.l2.overall_avg_miss_latency::cpu3.inst 49806.451613                       # average overall miss latency
system.l2.overall_avg_miss_latency::cpu3.data 52918.322482                       # average overall miss latency
system.l2.overall_avg_miss_latency::total 52822.637885                       # average overall miss latency
system.l2.blocked_cycles::no_mshrs                  0                       # number of cycles access was blocked
system.l2.blocked_cycles::no_targets                0                       # number of cycles access was blocked
system.l2.blocked::no_mshrs                         0                       # number of cycles access was blocked
system.l2.blocked::no_targets                       0                       # number of cycles access was blocked
system.l2.avg_blocked_cycles::no_mshrs            nan                       # average number of cycles each access was blocked
system.l2.avg_blocked_cycles::no_targets          nan                       # average number of cycles each access was blocked
system.l2.fast_writes                               0                       # number of fast writes performed
system.l2.cache_copies                              0                       # number of cache copies performed
system.l2.writebacks::writebacks                37464                       # number of writebacks
system.l2.writebacks::total                     37464                       # number of writebacks
system.l2.ReadReq_mshr_hits::cpu0.inst             42                       # number of ReadReq MSHR hits
system.l2.ReadReq_mshr_hits::cpu0.data             20                       # number of ReadReq MSHR hits
system.l2.ReadReq_mshr_hits::cpu1.inst             85                       # number of ReadReq MSHR hits
system.l2.ReadReq_mshr_hits::cpu1.data             38                       # number of ReadReq MSHR hits
system.l2.ReadReq_mshr_hits::cpu2.inst             65                       # number of ReadReq MSHR hits
system.l2.ReadReq_mshr_hits::cpu2.data             48                       # number of ReadReq MSHR hits
system.l2.ReadReq_mshr_hits::cpu3.inst             59                       # number of ReadReq MSHR hits
system.l2.ReadReq_mshr_hits::cpu3.data             35                       # number of ReadReq MSHR hits
system.l2.ReadReq_mshr_hits::total                392                       # number of ReadReq MSHR hits
system.l2.demand_mshr_hits::cpu0.inst              42                       # number of demand (read+write) MSHR hits
system.l2.demand_mshr_hits::cpu0.data              20                       # number of demand (read+write) MSHR hits
system.l2.demand_mshr_hits::cpu1.inst              85                       # number of demand (read+write) MSHR hits
system.l2.demand_mshr_hits::cpu1.data              38                       # number of demand (read+write) MSHR hits
system.l2.demand_mshr_hits::cpu2.inst              65                       # number of demand (read+write) MSHR hits
system.l2.demand_mshr_hits::cpu2.data              48                       # number of demand (read+write) MSHR hits
system.l2.demand_mshr_hits::cpu3.inst              59                       # number of demand (read+write) MSHR hits
system.l2.demand_mshr_hits::cpu3.data              35                       # number of demand (read+write) MSHR hits
system.l2.demand_mshr_hits::total                 392                       # number of demand (read+write) MSHR hits
system.l2.overall_mshr_hits::cpu0.inst             42                       # number of overall MSHR hits
system.l2.overall_mshr_hits::cpu0.data             20                       # number of overall MSHR hits
system.l2.overall_mshr_hits::cpu1.inst             85                       # number of overall MSHR hits
system.l2.overall_mshr_hits::cpu1.data             38                       # number of overall MSHR hits
system.l2.overall_mshr_hits::cpu2.inst             65                       # number of overall MSHR hits
system.l2.overall_mshr_hits::cpu2.data             48                       # number of overall MSHR hits
system.l2.overall_mshr_hits::cpu3.inst             59                       # number of overall MSHR hits
system.l2.overall_mshr_hits::cpu3.data             35                       # number of overall MSHR hits
system.l2.overall_mshr_hits::total                392                       # number of overall MSHR hits
system.l2.ReadReq_mshr_misses::cpu0.inst         3574                       # number of ReadReq MSHR misses
system.l2.ReadReq_mshr_misses::cpu0.data        13349                       # number of ReadReq MSHR misses
system.l2.ReadReq_mshr_misses::cpu1.inst          285                       # number of ReadReq MSHR misses
system.l2.ReadReq_mshr_misses::cpu1.data        10122                       # number of ReadReq MSHR misses
system.l2.ReadReq_mshr_misses::cpu2.inst           56                       # number of ReadReq MSHR misses
system.l2.ReadReq_mshr_misses::cpu2.data        10351                       # number of ReadReq MSHR misses
system.l2.ReadReq_mshr_misses::cpu3.inst          127                       # number of ReadReq MSHR misses
system.l2.ReadReq_mshr_misses::cpu3.data        10642                       # number of ReadReq MSHR misses
system.l2.ReadReq_mshr_misses::total            48506                       # number of ReadReq MSHR misses
system.l2.UpgradeReq_mshr_misses::cpu0.data            8                       # number of UpgradeReq MSHR misses
system.l2.UpgradeReq_mshr_misses::cpu1.data            4                       # number of UpgradeReq MSHR misses
system.l2.UpgradeReq_mshr_misses::cpu2.data            2                       # number of UpgradeReq MSHR misses
system.l2.UpgradeReq_mshr_misses::cpu3.data            1                       # number of UpgradeReq MSHR misses
system.l2.UpgradeReq_mshr_misses::total            15                       # number of UpgradeReq MSHR misses
system.l2.SCUpgradeReq_mshr_misses::cpu0.data            5                       # number of SCUpgradeReq MSHR misses
system.l2.SCUpgradeReq_mshr_misses::cpu2.data            1                       # number of SCUpgradeReq MSHR misses
system.l2.SCUpgradeReq_mshr_misses::cpu3.data            7                       # number of SCUpgradeReq MSHR misses
system.l2.SCUpgradeReq_mshr_misses::total           13                       # number of SCUpgradeReq MSHR misses
system.l2.ReadExReq_mshr_misses::cpu0.data         9126                       # number of ReadExReq MSHR misses
system.l2.ReadExReq_mshr_misses::cpu1.data         1125                       # number of ReadExReq MSHR misses
system.l2.ReadExReq_mshr_misses::cpu2.data         1129                       # number of ReadExReq MSHR misses
system.l2.ReadExReq_mshr_misses::cpu3.data         1150                       # number of ReadExReq MSHR misses
system.l2.ReadExReq_mshr_misses::total          12530                       # number of ReadExReq MSHR misses
system.l2.demand_mshr_misses::cpu0.inst          3574                       # number of demand (read+write) MSHR misses
system.l2.demand_mshr_misses::cpu0.data         22475                       # number of demand (read+write) MSHR misses
system.l2.demand_mshr_misses::cpu1.inst           285                       # number of demand (read+write) MSHR misses
system.l2.demand_mshr_misses::cpu1.data         11247                       # number of demand (read+write) MSHR misses
system.l2.demand_mshr_misses::cpu2.inst            56                       # number of demand (read+write) MSHR misses
system.l2.demand_mshr_misses::cpu2.data         11480                       # number of demand (read+write) MSHR misses
system.l2.demand_mshr_misses::cpu3.inst           127                       # number of demand (read+write) MSHR misses
system.l2.demand_mshr_misses::cpu3.data         11792                       # number of demand (read+write) MSHR misses
system.l2.demand_mshr_misses::total             61036                       # number of demand (read+write) MSHR misses
system.l2.overall_mshr_misses::cpu0.inst         3574                       # number of overall MSHR misses
system.l2.overall_mshr_misses::cpu0.data        22475                       # number of overall MSHR misses
system.l2.overall_mshr_misses::cpu1.inst          285                       # number of overall MSHR misses
system.l2.overall_mshr_misses::cpu1.data        11247                       # number of overall MSHR misses
system.l2.overall_mshr_misses::cpu2.inst           56                       # number of overall MSHR misses
system.l2.overall_mshr_misses::cpu2.data        11480                       # number of overall MSHR misses
system.l2.overall_mshr_misses::cpu3.inst          127                       # number of overall MSHR misses
system.l2.overall_mshr_misses::cpu3.data        11792                       # number of overall MSHR misses
system.l2.overall_mshr_misses::total            61036                       # number of overall MSHR misses
system.l2.ReadReq_mshr_miss_latency::cpu0.inst    143054000                       # number of ReadReq MSHR miss cycles
system.l2.ReadReq_mshr_miss_latency::cpu0.data    545581000                       # number of ReadReq MSHR miss cycles
system.l2.ReadReq_mshr_miss_latency::cpu1.inst     11437000                       # number of ReadReq MSHR miss cycles
system.l2.ReadReq_mshr_miss_latency::cpu1.data    415393000                       # number of ReadReq MSHR miss cycles
system.l2.ReadReq_mshr_miss_latency::cpu2.inst      2264000                       # number of ReadReq MSHR miss cycles
system.l2.ReadReq_mshr_miss_latency::cpu2.data    426421000                       # number of ReadReq MSHR miss cycles
system.l2.ReadReq_mshr_miss_latency::cpu3.inst      5099000                       # number of ReadReq MSHR miss cycles
system.l2.ReadReq_mshr_miss_latency::cpu3.data    436516000                       # number of ReadReq MSHR miss cycles
system.l2.ReadReq_mshr_miss_latency::total   1985765000                       # number of ReadReq MSHR miss cycles
system.l2.UpgradeReq_mshr_miss_latency::cpu0.data       320000                       # number of UpgradeReq MSHR miss cycles
system.l2.UpgradeReq_mshr_miss_latency::cpu1.data       165000                       # number of UpgradeReq MSHR miss cycles
system.l2.UpgradeReq_mshr_miss_latency::cpu2.data        81000                       # number of UpgradeReq MSHR miss cycles
system.l2.UpgradeReq_mshr_miss_latency::cpu3.data        40000                       # number of UpgradeReq MSHR miss cycles
system.l2.UpgradeReq_mshr_miss_latency::total       606000                       # number of UpgradeReq MSHR miss cycles
system.l2.SCUpgradeReq_mshr_miss_latency::cpu0.data       203000                       # number of SCUpgradeReq MSHR miss cycles
system.l2.SCUpgradeReq_mshr_miss_latency::cpu2.data        40000                       # number of SCUpgradeReq MSHR miss cycles
system.l2.SCUpgradeReq_mshr_miss_latency::cpu3.data       283000                       # number of SCUpgradeReq MSHR miss cycles
system.l2.SCUpgradeReq_mshr_miss_latency::total       526000                       # number of SCUpgradeReq MSHR miss cycles
system.l2.ReadExReq_mshr_miss_latency::cpu0.data    372011000                       # number of ReadExReq MSHR miss cycles
system.l2.ReadExReq_mshr_miss_latency::cpu1.data     45772000                       # number of ReadExReq MSHR miss cycles
system.l2.ReadExReq_mshr_miss_latency::cpu2.data     45812000                       # number of ReadExReq MSHR miss cycles
system.l2.ReadExReq_mshr_miss_latency::cpu3.data     46590000                       # number of ReadExReq MSHR miss cycles
system.l2.ReadExReq_mshr_miss_latency::total    510185000                       # number of ReadExReq MSHR miss cycles
system.l2.demand_mshr_miss_latency::cpu0.inst    143054000                       # number of demand (read+write) MSHR miss cycles
system.l2.demand_mshr_miss_latency::cpu0.data    917592000                       # number of demand (read+write) MSHR miss cycles
system.l2.demand_mshr_miss_latency::cpu1.inst     11437000                       # number of demand (read+write) MSHR miss cycles
system.l2.demand_mshr_miss_latency::cpu1.data    461165000                       # number of demand (read+write) MSHR miss cycles
system.l2.demand_mshr_miss_latency::cpu2.inst      2264000                       # number of demand (read+write) MSHR miss cycles
system.l2.demand_mshr_miss_latency::cpu2.data    472233000                       # number of demand (read+write) MSHR miss cycles
system.l2.demand_mshr_miss_latency::cpu3.inst      5099000                       # number of demand (read+write) MSHR miss cycles
system.l2.demand_mshr_miss_latency::cpu3.data    483106000                       # number of demand (read+write) MSHR miss cycles
system.l2.demand_mshr_miss_latency::total   2495950000                       # number of demand (read+write) MSHR miss cycles
system.l2.overall_mshr_miss_latency::cpu0.inst    143054000                       # number of overall MSHR miss cycles
system.l2.overall_mshr_miss_latency::cpu0.data    917592000                       # number of overall MSHR miss cycles
system.l2.overall_mshr_miss_latency::cpu1.inst     11437000                       # number of overall MSHR miss cycles
system.l2.overall_mshr_miss_latency::cpu1.data    461165000                       # number of overall MSHR miss cycles
system.l2.overall_mshr_miss_latency::cpu2.inst      2264000                       # number of overall MSHR miss cycles
system.l2.overall_mshr_miss_latency::cpu2.data    472233000                       # number of overall MSHR miss cycles
system.l2.overall_mshr_miss_latency::cpu3.inst      5099000                       # number of overall MSHR miss cycles
system.l2.overall_mshr_miss_latency::cpu3.data    483106000                       # number of overall MSHR miss cycles
system.l2.overall_mshr_miss_latency::total   2495950000                       # number of overall MSHR miss cycles
system.l2.ReadReq_mshr_miss_rate::cpu0.inst     0.011099                       # mshr miss rate for ReadReq accesses
system.l2.ReadReq_mshr_miss_rate::cpu0.data     0.150736                       # mshr miss rate for ReadReq accesses
system.l2.ReadReq_mshr_miss_rate::cpu1.inst     0.440495                       # mshr miss rate for ReadReq accesses
system.l2.ReadReq_mshr_miss_rate::cpu1.data     0.134127                       # mshr miss rate for ReadReq accesses
system.l2.ReadReq_mshr_miss_rate::cpu2.inst     0.084592                       # mshr miss rate for ReadReq accesses
system.l2.ReadReq_mshr_miss_rate::cpu2.data     0.138592                       # mshr miss rate for ReadReq accesses
system.l2.ReadReq_mshr_miss_rate::cpu3.inst     0.184593                       # mshr miss rate for ReadReq accesses
system.l2.ReadReq_mshr_miss_rate::cpu3.data     0.138492                       # mshr miss rate for ReadReq accesses
system.l2.ReadReq_mshr_miss_rate::total      0.075842                       # mshr miss rate for ReadReq accesses
system.l2.UpgradeReq_mshr_miss_rate::cpu0.data     0.045977                       # mshr miss rate for UpgradeReq accesses
system.l2.UpgradeReq_mshr_miss_rate::cpu1.data     0.023256                       # mshr miss rate for UpgradeReq accesses
system.l2.UpgradeReq_mshr_miss_rate::cpu2.data     0.014085                       # mshr miss rate for UpgradeReq accesses
system.l2.UpgradeReq_mshr_miss_rate::cpu3.data     0.006944                       # mshr miss rate for UpgradeReq accesses
system.l2.UpgradeReq_mshr_miss_rate::total     0.023734                       # mshr miss rate for UpgradeReq accesses
system.l2.SCUpgradeReq_mshr_miss_rate::cpu0.data            1                       # mshr miss rate for SCUpgradeReq accesses
system.l2.SCUpgradeReq_mshr_miss_rate::cpu2.data     0.500000                       # mshr miss rate for SCUpgradeReq accesses
system.l2.SCUpgradeReq_mshr_miss_rate::cpu3.data     0.777778                       # mshr miss rate for SCUpgradeReq accesses
system.l2.SCUpgradeReq_mshr_miss_rate::total     0.812500                       # mshr miss rate for SCUpgradeReq accesses
system.l2.ReadExReq_mshr_miss_rate::cpu0.data     0.973440                       # mshr miss rate for ReadExReq accesses
system.l2.ReadExReq_mshr_miss_rate::cpu1.data     0.939850                       # mshr miss rate for ReadExReq accesses
system.l2.ReadExReq_mshr_miss_rate::cpu2.data     0.896743                       # mshr miss rate for ReadExReq accesses
system.l2.ReadExReq_mshr_miss_rate::cpu3.data     0.931174                       # mshr miss rate for ReadExReq accesses
system.l2.ReadExReq_mshr_miss_rate::total     0.958977                       # mshr miss rate for ReadExReq accesses
system.l2.demand_mshr_miss_rate::cpu0.inst     0.011099                       # mshr miss rate for demand accesses
system.l2.demand_mshr_miss_rate::cpu0.data     0.229491                       # mshr miss rate for demand accesses
system.l2.demand_mshr_miss_rate::cpu1.inst     0.440495                       # mshr miss rate for demand accesses
system.l2.demand_mshr_miss_rate::cpu1.data     0.146707                       # mshr miss rate for demand accesses
system.l2.demand_mshr_miss_rate::cpu2.inst     0.084592                       # mshr miss rate for demand accesses
system.l2.demand_mshr_miss_rate::cpu2.data     0.151160                       # mshr miss rate for demand accesses
system.l2.demand_mshr_miss_rate::cpu3.inst     0.184593                       # mshr miss rate for demand accesses
system.l2.demand_mshr_miss_rate::cpu3.data     0.151030                       # mshr miss rate for demand accesses
system.l2.demand_mshr_miss_rate::total       0.093523                       # mshr miss rate for demand accesses
system.l2.overall_mshr_miss_rate::cpu0.inst     0.011099                       # mshr miss rate for overall accesses
system.l2.overall_mshr_miss_rate::cpu0.data     0.229491                       # mshr miss rate for overall accesses
system.l2.overall_mshr_miss_rate::cpu1.inst     0.440495                       # mshr miss rate for overall accesses
system.l2.overall_mshr_miss_rate::cpu1.data     0.146707                       # mshr miss rate for overall accesses
system.l2.overall_mshr_miss_rate::cpu2.inst     0.084592                       # mshr miss rate for overall accesses
system.l2.overall_mshr_miss_rate::cpu2.data     0.151160                       # mshr miss rate for overall accesses
system.l2.overall_mshr_miss_rate::cpu3.inst     0.184593                       # mshr miss rate for overall accesses
system.l2.overall_mshr_miss_rate::cpu3.data     0.151030                       # mshr miss rate for overall accesses
system.l2.overall_mshr_miss_rate::total      0.093523                       # mshr miss rate for overall accesses
system.l2.ReadReq_avg_mshr_miss_latency::cpu0.inst 40026.301063                       # average ReadReq mshr miss latency
system.l2.ReadReq_avg_mshr_miss_latency::cpu0.data 40870.552101                       # average ReadReq mshr miss latency
system.l2.ReadReq_avg_mshr_miss_latency::cpu1.inst 40129.824561                       # average ReadReq mshr miss latency
system.l2.ReadReq_avg_mshr_miss_latency::cpu1.data 41038.628730                       # average ReadReq mshr miss latency
system.l2.ReadReq_avg_mshr_miss_latency::cpu2.inst 40428.571429                       # average ReadReq mshr miss latency
system.l2.ReadReq_avg_mshr_miss_latency::cpu2.data 41196.116317                       # average ReadReq mshr miss latency
system.l2.ReadReq_avg_mshr_miss_latency::cpu3.inst 40149.606299                       # average ReadReq mshr miss latency
system.l2.ReadReq_avg_mshr_miss_latency::cpu3.data 41018.229656                       # average ReadReq mshr miss latency
system.l2.ReadReq_avg_mshr_miss_latency::total 40938.543685                       # average ReadReq mshr miss latency
system.l2.UpgradeReq_avg_mshr_miss_latency::cpu0.data        40000                       # average UpgradeReq mshr miss latency
system.l2.UpgradeReq_avg_mshr_miss_latency::cpu1.data        41250                       # average UpgradeReq mshr miss latency
system.l2.UpgradeReq_avg_mshr_miss_latency::cpu2.data        40500                       # average UpgradeReq mshr miss latency
system.l2.UpgradeReq_avg_mshr_miss_latency::cpu3.data        40000                       # average UpgradeReq mshr miss latency
system.l2.UpgradeReq_avg_mshr_miss_latency::total        40400                       # average UpgradeReq mshr miss latency
system.l2.SCUpgradeReq_avg_mshr_miss_latency::cpu0.data        40600                       # average SCUpgradeReq mshr miss latency
system.l2.SCUpgradeReq_avg_mshr_miss_latency::cpu2.data        40000                       # average SCUpgradeReq mshr miss latency
system.l2.SCUpgradeReq_avg_mshr_miss_latency::cpu3.data 40428.571429                       # average SCUpgradeReq mshr miss latency
system.l2.SCUpgradeReq_avg_mshr_miss_latency::total 40461.538462                       # average SCUpgradeReq mshr miss latency
system.l2.ReadExReq_avg_mshr_miss_latency::cpu0.data 40763.861495                       # average ReadExReq mshr miss latency
system.l2.ReadExReq_avg_mshr_miss_latency::cpu1.data 40686.222222                       # average ReadExReq mshr miss latency
system.l2.ReadExReq_avg_mshr_miss_latency::cpu2.data 40577.502214                       # average ReadExReq mshr miss latency
system.l2.ReadExReq_avg_mshr_miss_latency::cpu3.data 40513.043478                       # average ReadExReq mshr miss latency
system.l2.ReadExReq_avg_mshr_miss_latency::total 40717.079010                       # average ReadExReq mshr miss latency
system.l2.demand_avg_mshr_miss_latency::cpu0.inst 40026.301063                       # average overall mshr miss latency
system.l2.demand_avg_mshr_miss_latency::cpu0.data 40827.230256                       # average overall mshr miss latency
system.l2.demand_avg_mshr_miss_latency::cpu1.inst 40129.824561                       # average overall mshr miss latency
system.l2.demand_avg_mshr_miss_latency::cpu1.data 41003.378679                       # average overall mshr miss latency
system.l2.demand_avg_mshr_miss_latency::cpu2.inst 40428.571429                       # average overall mshr miss latency
system.l2.demand_avg_mshr_miss_latency::cpu2.data 41135.278746                       # average overall mshr miss latency
system.l2.demand_avg_mshr_miss_latency::cpu3.inst 40149.606299                       # average overall mshr miss latency
system.l2.demand_avg_mshr_miss_latency::cpu3.data 40968.962008                       # average overall mshr miss latency
system.l2.demand_avg_mshr_miss_latency::total 40893.079494                       # average overall mshr miss latency
system.l2.overall_avg_mshr_miss_latency::cpu0.inst 40026.301063                       # average overall mshr miss latency
system.l2.overall_avg_mshr_miss_latency::cpu0.data 40827.230256                       # average overall mshr miss latency
system.l2.overall_avg_mshr_miss_latency::cpu1.inst 40129.824561                       # average overall mshr miss latency
system.l2.overall_avg_mshr_miss_latency::cpu1.data 41003.378679                       # average overall mshr miss latency
system.l2.overall_avg_mshr_miss_latency::cpu2.inst 40428.571429                       # average overall mshr miss latency
system.l2.overall_avg_mshr_miss_latency::cpu2.data 41135.278746                       # average overall mshr miss latency
system.l2.overall_avg_mshr_miss_latency::cpu3.inst 40149.606299                       # average overall mshr miss latency
system.l2.overall_avg_mshr_miss_latency::cpu3.data 40968.962008                       # average overall mshr miss latency
system.l2.overall_avg_mshr_miss_latency::total 40893.079494                       # average overall mshr miss latency
system.l2.no_allocate_misses                        0                       # Number of misses that were no-allocate
system.cpu0.dtb.fetch_hits                          0                       # ITB hits
system.cpu0.dtb.fetch_misses                        0                       # ITB misses
system.cpu0.dtb.fetch_acv                           0                       # ITB acv
system.cpu0.dtb.fetch_accesses                      0                       # ITB accesses
system.cpu0.dtb.read_hits                    36749349                       # DTB read hits
system.cpu0.dtb.read_misses                     22127                       # DTB read misses
system.cpu0.dtb.read_acv                            4                       # DTB read access violations
system.cpu0.dtb.read_accesses                36771476                       # DTB read accesses
system.cpu0.dtb.write_hits                   14843744                       # DTB write hits
system.cpu0.dtb.write_misses                      613                       # DTB write misses
system.cpu0.dtb.write_acv                           0                       # DTB write access violations
system.cpu0.dtb.write_accesses               14844357                       # DTB write accesses
system.cpu0.dtb.data_hits                    51593093                       # DTB hits
system.cpu0.dtb.data_misses                     22740                       # DTB misses
system.cpu0.dtb.data_acv                            4                       # DTB access violations
system.cpu0.dtb.data_accesses                51615833                       # DTB accesses
system.cpu0.itb.fetch_hits                   26411158                       # ITB hits
system.cpu0.itb.fetch_misses                      288                       # ITB misses
system.cpu0.itb.fetch_acv                           0                       # ITB acv
system.cpu0.itb.fetch_accesses               26411446                       # ITB accesses
system.cpu0.itb.read_hits                           0                       # DTB read hits
system.cpu0.itb.read_misses                         0                       # DTB read misses
system.cpu0.itb.read_acv                            0                       # DTB read access violations
system.cpu0.itb.read_accesses                       0                       # DTB read accesses
system.cpu0.itb.write_hits                          0                       # DTB write hits
system.cpu0.itb.write_misses                        0                       # DTB write misses
system.cpu0.itb.write_acv                           0                       # DTB write access violations
system.cpu0.itb.write_accesses                      0                       # DTB write accesses
system.cpu0.itb.data_hits                           0                       # DTB hits
system.cpu0.itb.data_misses                         0                       # DTB misses
system.cpu0.itb.data_acv                            0                       # DTB access violations
system.cpu0.itb.data_accesses                       0                       # DTB accesses
system.cpu0.numCycles                        66034726                       # number of cpu cycles simulated
system.cpu0.numWorkItemsStarted                     0                       # number of work items this cpu started
system.cpu0.numWorkItemsCompleted                   0                       # number of work items this cpu completed
system.cpu0.BPredUnit.lookups                27149024                       # Number of BP lookups
system.cpu0.BPredUnit.condPredicted          23455735                       # Number of conditional branches predicted
system.cpu0.BPredUnit.condIncorrect            674216                       # Number of conditional branches incorrect
system.cpu0.BPredUnit.BTBLookups             19874454                       # Number of BTB lookups
system.cpu0.BPredUnit.BTBHits                19093231                       # Number of BTB hits
system.cpu0.BPredUnit.BTBCorrect                    0                       # Number of correct BTB predictions (this stat may not work properly.
system.cpu0.BPredUnit.usedRAS                 1043237                       # Number of times the RAS was used to get a target.
system.cpu0.BPredUnit.RASInCorrect                912                       # Number of incorrect RAS predictions.
system.cpu0.fetch.icacheStallCycles           4650637                       # Number of cycles fetch is stalled on an Icache miss
system.cpu0.fetch.Insts                     191171868                       # Number of instructions fetch has processed
system.cpu0.fetch.Branches                   27149024                       # Number of branches that fetch encountered
system.cpu0.fetch.predictedBranches          20136468                       # Number of branches that fetch has predicted taken
system.cpu0.fetch.Cycles                     35694981                       # Number of cycles fetch has run and was not squashing or blocked
system.cpu0.fetch.SquashCycles                2847892                       # Number of cycles fetch has spent squashing
system.cpu0.fetch.BlockedCycles              23303359                       # Number of cycles fetch has spent blocked
system.cpu0.fetch.MiscStallCycles                 130                       # Number of cycles fetch has spent waiting on interrupts, or bad addresses, or out of MSHRs
system.cpu0.fetch.PendingTrapStallCycles         4647                       # Number of stall cycles due to pending traps
system.cpu0.fetch.CacheLines                 26411158                       # Number of cache lines fetched
system.cpu0.fetch.IcacheSquashes                25390                       # Number of outstanding Icache misses that were squashed
system.cpu0.fetch.rateDist::samples          65823063                       # Number of instructions fetched each cycle (Total)
system.cpu0.fetch.rateDist::mean             2.904330                       # Number of instructions fetched each cycle (Total)
system.cpu0.fetch.rateDist::stdev            3.144539                       # Number of instructions fetched each cycle (Total)
system.cpu0.fetch.rateDist::underflows              0      0.00%      0.00% # Number of instructions fetched each cycle (Total)
system.cpu0.fetch.rateDist::0                30128082     45.77%     45.77% # Number of instructions fetched each cycle (Total)
system.cpu0.fetch.rateDist::1                 2990663      4.54%     50.31% # Number of instructions fetched each cycle (Total)
system.cpu0.fetch.rateDist::2                 1169495      1.78%     52.09% # Number of instructions fetched each cycle (Total)
system.cpu0.fetch.rateDist::3                 1400503      2.13%     54.22% # Number of instructions fetched each cycle (Total)
system.cpu0.fetch.rateDist::4                 8438149     12.82%     67.04% # Number of instructions fetched each cycle (Total)
system.cpu0.fetch.rateDist::5                 7536487     11.45%     78.49% # Number of instructions fetched each cycle (Total)
system.cpu0.fetch.rateDist::6                 1127056      1.71%     80.20% # Number of instructions fetched each cycle (Total)
system.cpu0.fetch.rateDist::7                  817685      1.24%     81.44% # Number of instructions fetched each cycle (Total)
system.cpu0.fetch.rateDist::8                12214943     18.56%    100.00% # Number of instructions fetched each cycle (Total)
system.cpu0.fetch.rateDist::overflows               0      0.00%    100.00% # Number of instructions fetched each cycle (Total)
system.cpu0.fetch.rateDist::min_value               0                       # Number of instructions fetched each cycle (Total)
system.cpu0.fetch.rateDist::max_value               8                       # Number of instructions fetched each cycle (Total)
system.cpu0.fetch.rateDist::total            65823063                       # Number of instructions fetched each cycle (Total)
system.cpu0.fetch.branchRate                 0.411133                       # Number of branch fetches per cycle
system.cpu0.fetch.rate                       2.895020                       # Number of inst fetches per cycle
system.cpu0.decode.IdleCycles                 8234880                       # Number of cycles decode is idle
system.cpu0.decode.BlockedCycles             20363503                       # Number of cycles decode is blocked
system.cpu0.decode.RunCycles                 32103862                       # Number of cycles decode is running
system.cpu0.decode.UnblockCycles              2954180                       # Number of cycles decode is unblocking
system.cpu0.decode.SquashCycles               2166638                       # Number of cycles decode is squashing
system.cpu0.decode.BranchResolved             2459332                       # Number of times decode resolved a branch
system.cpu0.decode.BranchMispred                 2764                       # Number of times decode detected a branch misprediction
system.cpu0.decode.DecodedInsts             188115957                       # Number of instructions handled by decode
system.cpu0.decode.SquashedInsts                13470                       # Number of squashed instructions handled by decode
system.cpu0.rename.SquashCycles               2166638                       # Number of cycles rename is squashing
system.cpu0.rename.IdleCycles                11553522                       # Number of cycles rename is idle
system.cpu0.rename.BlockCycles               12684711                       # Number of cycles rename is blocking
system.cpu0.rename.serializeStallCycles        417729                       # count of cycles rename stalled for serializing inst
system.cpu0.rename.RunCycles                 31457245                       # Number of cycles rename is running
system.cpu0.rename.UnblockCycles              7543218                       # Number of cycles rename is unblocking
system.cpu0.rename.RenamedInsts             185137714                       # Number of instructions processed by rename
system.cpu0.rename.ROBFullEvents                    7                       # Number of times rename has blocked due to ROB full
system.cpu0.rename.IQFullEvents                 30768                       # Number of times rename has blocked due to IQ full
system.cpu0.rename.LSQFullEvents              2824448                       # Number of times rename has blocked due to LSQ full
system.cpu0.rename.FullRegisterEvents         2793277                       # Number of times there has been no free registers
system.cpu0.rename.RenamedOperands          138347357                       # Number of destination operands rename has renamed
system.cpu0.rename.RenameLookups            252219482                       # Number of register rename lookups that rename has made
system.cpu0.rename.int_rename_lookups        91107812                       # Number of integer rename lookups
system.cpu0.rename.fp_rename_lookups        161111670                       # Number of floating rename lookups
system.cpu0.rename.CommittedMaps            123877862                       # Number of HB maps that are committed
system.cpu0.rename.UndoneMaps                14469495                       # Number of HB maps that are undone due to squashing
system.cpu0.rename.serializingInsts             38500                       # count of serializing insts renamed
system.cpu0.rename.tempSerializingInsts         14330                       # count of temporary serializing insts renamed
system.cpu0.rename.skidInsts                 26335169                       # count of insts added to the skid buffer
system.cpu0.memDep0.insertedLoads            36774162                       # Number of loads inserted to the mem dependence unit.
system.cpu0.memDep0.insertedStores           15112218                       # Number of stores inserted to the mem dependence unit.
system.cpu0.memDep0.conflictingLoads          2187249                       # Number of conflicting loads.
system.cpu0.memDep0.conflictingStores         1224782                       # Number of conflicting stores.
system.cpu0.iq.iqInstsAdded                 173904919                       # Number of instructions added to the IQ (excludes non-spec)
system.cpu0.iq.iqNonSpecInstsAdded              26655                       # Number of non-speculative instructions added to the IQ
system.cpu0.iq.iqInstsIssued                169552552                       # Number of instructions issued
system.cpu0.iq.iqSquashedInstsIssued           412673                       # Number of squashed instructions issued
system.cpu0.iq.iqSquashedInstsExamined       13645213                       # Number of squashed instructions iterated over during squash; mainly for profiling
system.cpu0.iq.iqSquashedOperandsExamined      8427751                       # Number of squashed operands that are examined and possibly removed from graph
system.cpu0.iq.iqSquashedNonSpecRemoved           446                       # Number of squashed non-spec instructions that were removed
system.cpu0.iq.issued_per_cycle::samples     65823063                       # Number of insts issued each cycle
system.cpu0.iq.issued_per_cycle::mean        2.575884                       # Number of insts issued each cycle
system.cpu0.iq.issued_per_cycle::stdev       2.035506                       # Number of insts issued each cycle
system.cpu0.iq.issued_per_cycle::underflows            0      0.00%      0.00% # Number of insts issued each cycle
system.cpu0.iq.issued_per_cycle::0           16064350     24.41%     24.41% # Number of insts issued each cycle
system.cpu0.iq.issued_per_cycle::1            7740653     11.76%     36.17% # Number of insts issued each cycle
system.cpu0.iq.issued_per_cycle::2            7177692     10.90%     47.07% # Number of insts issued each cycle
system.cpu0.iq.issued_per_cycle::3           12749139     19.37%     66.44% # Number of insts issued each cycle
system.cpu0.iq.issued_per_cycle::4            8910742     13.54%     79.98% # Number of insts issued each cycle
system.cpu0.iq.issued_per_cycle::5            6350221      9.65%     89.62% # Number of insts issued each cycle
system.cpu0.iq.issued_per_cycle::6            6109890      9.28%     98.91% # Number of insts issued each cycle
system.cpu0.iq.issued_per_cycle::7             607323      0.92%     99.83% # Number of insts issued each cycle
system.cpu0.iq.issued_per_cycle::8             113053      0.17%    100.00% # Number of insts issued each cycle
system.cpu0.iq.issued_per_cycle::overflows            0      0.00%    100.00% # Number of insts issued each cycle
system.cpu0.iq.issued_per_cycle::min_value            0                       # Number of insts issued each cycle
system.cpu0.iq.issued_per_cycle::max_value            8                       # Number of insts issued each cycle
system.cpu0.iq.issued_per_cycle::total       65823063                       # Number of insts issued each cycle
system.cpu0.iq.fu_full::No_OpClass                  0      0.00%      0.00% # attempts to use FU when none available
system.cpu0.iq.fu_full::IntAlu                  31176      1.05%      1.05% # attempts to use FU when none available
system.cpu0.iq.fu_full::IntMult                     0      0.00%      1.05% # attempts to use FU when none available
system.cpu0.iq.fu_full::IntDiv                      0      0.00%      1.05% # attempts to use FU when none available
system.cpu0.iq.fu_full::FloatAdd               216410      7.32%      8.38% # attempts to use FU when none available
system.cpu0.iq.fu_full::FloatCmp                    3      0.00%      8.38% # attempts to use FU when none available
system.cpu0.iq.fu_full::FloatCvt                    0      0.00%      8.38% # attempts to use FU when none available
system.cpu0.iq.fu_full::FloatMult             1178490     39.87%     48.24% # attempts to use FU when none available
system.cpu0.iq.fu_full::FloatDiv               183773      6.22%     54.46% # attempts to use FU when none available
system.cpu0.iq.fu_full::FloatSqrt                   0      0.00%     54.46% # attempts to use FU when none available
system.cpu0.iq.fu_full::SimdAdd                     0      0.00%     54.46% # attempts to use FU when none available
system.cpu0.iq.fu_full::SimdAddAcc                  0      0.00%     54.46% # attempts to use FU when none available
system.cpu0.iq.fu_full::SimdAlu                     0      0.00%     54.46% # attempts to use FU when none available
system.cpu0.iq.fu_full::SimdCmp                     0      0.00%     54.46% # attempts to use FU when none available
system.cpu0.iq.fu_full::SimdCvt                     0      0.00%     54.46% # attempts to use FU when none available
system.cpu0.iq.fu_full::SimdMisc                    0      0.00%     54.46% # attempts to use FU when none available
system.cpu0.iq.fu_full::SimdMult                    0      0.00%     54.46% # attempts to use FU when none available
system.cpu0.iq.fu_full::SimdMultAcc                 0      0.00%     54.46% # attempts to use FU when none available
system.cpu0.iq.fu_full::SimdShift                   0      0.00%     54.46% # attempts to use FU when none available
system.cpu0.iq.fu_full::SimdShiftAcc                0      0.00%     54.46% # attempts to use FU when none available
system.cpu0.iq.fu_full::SimdSqrt                    0      0.00%     54.46% # attempts to use FU when none available
system.cpu0.iq.fu_full::SimdFloatAdd                0      0.00%     54.46% # attempts to use FU when none available
system.cpu0.iq.fu_full::SimdFloatAlu                0      0.00%     54.46% # attempts to use FU when none available
system.cpu0.iq.fu_full::SimdFloatCmp                0      0.00%     54.46% # attempts to use FU when none available
system.cpu0.iq.fu_full::SimdFloatCvt                0      0.00%     54.46% # attempts to use FU when none available
system.cpu0.iq.fu_full::SimdFloatDiv                0      0.00%     54.46% # attempts to use FU when none available
system.cpu0.iq.fu_full::SimdFloatMisc               0      0.00%     54.46% # attempts to use FU when none available
system.cpu0.iq.fu_full::SimdFloatMult               0      0.00%     54.46% # attempts to use FU when none available
system.cpu0.iq.fu_full::SimdFloatMultAcc            0      0.00%     54.46% # attempts to use FU when none available
system.cpu0.iq.fu_full::SimdFloatSqrt               0      0.00%     54.46% # attempts to use FU when none available
system.cpu0.iq.fu_full::MemRead               1194487     40.41%     94.87% # attempts to use FU when none available
system.cpu0.iq.fu_full::MemWrite               151600      5.13%    100.00% # attempts to use FU when none available
[...]
system.cpu3.icache.demand_mshr_miss_latency::total     16331000                       # number of demand (read+write) MSHR miss cycles
system.cpu3.icache.overall_mshr_miss_latency::cpu3.inst     16331000                       # number of overall MSHR miss cycles
system.cpu3.icache.overall_mshr_miss_latency::total     16331000                       # number of overall MSHR miss cycles
system.cpu3.icache.ReadReq_mshr_miss_rate::cpu3.inst     0.000029                       # mshr miss rate for ReadReq accesses
system.cpu3.icache.ReadReq_mshr_miss_rate::total     0.000029                       # mshr miss rate for ReadReq accesses
system.cpu3.icache.demand_mshr_miss_rate::cpu3.inst     0.000029                       # mshr miss rate for demand accesses
system.cpu3.icache.demand_mshr_miss_rate::total     0.000029                       # mshr miss rate for demand accesses
system.cpu3.icache.overall_mshr_miss_rate::cpu3.inst     0.000029                       # mshr miss rate for overall accesses
system.cpu3.icache.overall_mshr_miss_rate::total     0.000029                       # mshr miss rate for overall accesses
system.cpu3.icache.ReadReq_avg_mshr_miss_latency::cpu3.inst 23736.918605                       # average ReadReq mshr miss latency
system.cpu3.icache.ReadReq_avg_mshr_miss_latency::total 23736.918605                       # average ReadReq mshr miss latency
system.cpu3.icache.demand_avg_mshr_miss_latency::cpu3.inst 23736.918605                       # average overall mshr miss latency
system.cpu3.icache.demand_avg_mshr_miss_latency::total 23736.918605                       # average overall mshr miss latency
system.cpu3.icache.overall_avg_mshr_miss_latency::cpu3.inst 23736.918605                       # average overall mshr miss latency
system.cpu3.icache.overall_avg_mshr_miss_latency::total 23736.918605                       # average overall mshr miss latency
system.cpu3.icache.no_allocate_misses               0                       # Number of misses that were no-allocate
system.cpu3.dcache.replacements                 85315                       # number of replacements
system.cpu3.dcache.tagsinuse               407.267146                       # Cycle average of tags in use
system.cpu3.dcache.total_refs                42413367                       # Total number of references to valid blocks.
system.cpu3.dcache.sampled_refs                 85816                       # Sample count of references to valid blocks.
system.cpu3.dcache.avg_refs                494.236121                       # Average number of references to valid blocks.
system.cpu3.dcache.warmup_cycle                     0                       # Cycle when the warmup percentage was hit.
system.cpu3.dcache.occ_blocks::cpu3.data   407.267146                       # Average occupied blocks per requestor
system.cpu3.dcache.occ_percent::cpu3.data     0.795444                       # Average percentage of cache occupancy
system.cpu3.dcache.occ_percent::total        0.795444                       # Average percentage of cache occupancy
system.cpu3.dcache.ReadReq_hits::cpu3.data     29950047                       # number of ReadReq hits
system.cpu3.dcache.ReadReq_hits::total       29950047                       # number of ReadReq hits
system.cpu3.dcache.WriteReq_hits::cpu3.data     12462799                       # number of WriteReq hits
system.cpu3.dcache.WriteReq_hits::total      12462799                       # number of WriteReq hits
system.cpu3.dcache.LoadLockedReq_hits::cpu3.data           89                       # number of LoadLockedReq hits
system.cpu3.dcache.LoadLockedReq_hits::total           89                       # number of LoadLockedReq hits
system.cpu3.dcache.StoreCondReq_hits::cpu3.data           55                       # number of StoreCondReq hits
system.cpu3.dcache.StoreCondReq_hits::total           55                       # number of StoreCondReq hits
system.cpu3.dcache.demand_hits::cpu3.data     42412846                       # number of demand (read+write) hits
system.cpu3.dcache.demand_hits::total        42412846                       # number of demand (read+write) hits
system.cpu3.dcache.overall_hits::cpu3.data     42412846                       # number of overall hits
system.cpu3.dcache.overall_hits::total       42412846                       # number of overall hits
system.cpu3.dcache.ReadReq_misses::cpu3.data       200553                       # number of ReadReq misses
system.cpu3.dcache.ReadReq_misses::total       200553                       # number of ReadReq misses
system.cpu3.dcache.WriteReq_misses::cpu3.data         5763                       # number of WriteReq misses
system.cpu3.dcache.WriteReq_misses::total         5763                       # number of WriteReq misses
system.cpu3.dcache.LoadLockedReq_misses::cpu3.data           28                       # number of LoadLockedReq misses
system.cpu3.dcache.LoadLockedReq_misses::total           28                       # number of LoadLockedReq misses
system.cpu3.dcache.StoreCondReq_misses::cpu3.data           58                       # number of StoreCondReq misses
system.cpu3.dcache.StoreCondReq_misses::total           58                       # number of StoreCondReq misses
system.cpu3.dcache.demand_misses::cpu3.data       206316                       # number of demand (read+write) misses
system.cpu3.dcache.demand_misses::total        206316                       # number of demand (read+write) misses
system.cpu3.dcache.overall_misses::cpu3.data       206316                       # number of overall misses
system.cpu3.dcache.overall_misses::total       206316                       # number of overall misses
system.cpu3.dcache.ReadReq_miss_latency::cpu3.data   3255933000                       # number of ReadReq miss cycles
system.cpu3.dcache.ReadReq_miss_latency::total   3255933000                       # number of ReadReq miss cycles
system.cpu3.dcache.WriteReq_miss_latency::cpu3.data    292977997                       # number of WriteReq miss cycles
system.cpu3.dcache.WriteReq_miss_latency::total    292977997                       # number of WriteReq miss cycles
system.cpu3.dcache.LoadLockedReq_miss_latency::cpu3.data       222000                       # number of LoadLockedReq miss cycles
system.cpu3.dcache.LoadLockedReq_miss_latency::total       222000                       # number of LoadLockedReq miss cycles
system.cpu3.dcache.StoreCondReq_miss_latency::cpu3.data       686000                       # number of StoreCondReq miss cycles
system.cpu3.dcache.StoreCondReq_miss_latency::total       686000                       # number of StoreCondReq miss cycles
system.cpu3.dcache.demand_miss_latency::cpu3.data   3548910997                       # number of demand (read+write) miss cycles
system.cpu3.dcache.demand_miss_latency::total   3548910997                       # number of demand (read+write) miss cycles
system.cpu3.dcache.overall_miss_latency::cpu3.data   3548910997                       # number of overall miss cycles
system.cpu3.dcache.overall_miss_latency::total   3548910997                       # number of overall miss cycles
system.cpu3.dcache.ReadReq_accesses::cpu3.data     30150600                       # number of ReadReq accesses(hits+misses)
system.cpu3.dcache.ReadReq_accesses::total     30150600                       # number of ReadReq accesses(hits+misses)
system.cpu3.dcache.WriteReq_accesses::cpu3.data     12468562                       # number of WriteReq accesses(hits+misses)
system.cpu3.dcache.WriteReq_accesses::total     12468562                       # number of WriteReq accesses(hits+misses)
system.cpu3.dcache.LoadLockedReq_accesses::cpu3.data          117                       # number of LoadLockedReq accesses(hits+misses)
system.cpu3.dcache.LoadLockedReq_accesses::total          117                       # number of LoadLockedReq accesses(hits+misses)
system.cpu3.dcache.StoreCondReq_accesses::cpu3.data          113                       # number of StoreCondReq accesses(hits+misses)
system.cpu3.dcache.StoreCondReq_accesses::total          113                       # number of StoreCondReq accesses(hits+misses)
system.cpu3.dcache.demand_accesses::cpu3.data     42619162                       # number of demand (read+write) accesses
system.cpu3.dcache.demand_accesses::total     42619162                       # number of demand (read+write) accesses
system.cpu3.dcache.overall_accesses::cpu3.data     42619162                       # number of overall (read+write) accesses
system.cpu3.dcache.overall_accesses::total     42619162                       # number of overall (read+write) accesses
system.cpu3.dcache.ReadReq_miss_rate::cpu3.data     0.006652                       # miss rate for ReadReq accesses
system.cpu3.dcache.ReadReq_miss_rate::total     0.006652                       # miss rate for ReadReq accesses
system.cpu3.dcache.WriteReq_miss_rate::cpu3.data     0.000462                       # miss rate for WriteReq accesses
system.cpu3.dcache.WriteReq_miss_rate::total     0.000462                       # miss rate for WriteReq accesses
system.cpu3.dcache.LoadLockedReq_miss_rate::cpu3.data     0.239316                       # miss rate for LoadLockedReq accesses
system.cpu3.dcache.LoadLockedReq_miss_rate::total     0.239316                       # miss rate for LoadLockedReq accesses
system.cpu3.dcache.StoreCondReq_miss_rate::cpu3.data     0.513274                       # miss rate for StoreCondReq accesses
system.cpu3.dcache.StoreCondReq_miss_rate::total     0.513274                       # miss rate for StoreCondReq accesses
system.cpu3.dcache.demand_miss_rate::cpu3.data     0.004841                       # miss rate for demand accesses
system.cpu3.dcache.demand_miss_rate::total     0.004841                       # miss rate for demand accesses
system.cpu3.dcache.overall_miss_rate::cpu3.data     0.004841                       # miss rate for overall accesses
system.cpu3.dcache.overall_miss_rate::total     0.004841                       # miss rate for overall accesses
system.cpu3.dcache.ReadReq_avg_miss_latency::cpu3.data 16234.775845                       # average ReadReq miss latency
system.cpu3.dcache.ReadReq_avg_miss_latency::total 16234.775845                       # average ReadReq miss latency
system.cpu3.dcache.WriteReq_avg_miss_latency::cpu3.data 50837.757592                       # average WriteReq miss latency
system.cpu3.dcache.WriteReq_avg_miss_latency::total 50837.757592                       # average WriteReq miss latency
system.cpu3.dcache.LoadLockedReq_avg_miss_latency::cpu3.data  7928.571429                       # average LoadLockedReq miss latency
system.cpu3.dcache.LoadLockedReq_avg_miss_latency::total  7928.571429                       # average LoadLockedReq miss latency
system.cpu3.dcache.StoreCondReq_avg_miss_latency::cpu3.data 11827.586207                       # average StoreCondReq miss latency
system.cpu3.dcache.StoreCondReq_avg_miss_latency::total 11827.586207                       # average StoreCondReq miss latency
system.cpu3.dcache.demand_avg_miss_latency::cpu3.data 17201.336770                       # average overall miss latency
system.cpu3.dcache.demand_avg_miss_latency::total 17201.336770                       # average overall miss latency
system.cpu3.dcache.overall_avg_miss_latency::cpu3.data 17201.336770                       # average overall miss latency
system.cpu3.dcache.overall_avg_miss_latency::total 17201.336770                       # average overall miss latency
system.cpu3.dcache.blocked_cycles::no_mshrs            0                       # number of cycles access was blocked
system.cpu3.dcache.blocked_cycles::no_targets     12552000                       # number of cycles access was blocked
system.cpu3.dcache.blocked::no_mshrs                0                       # number of cycles access was blocked
system.cpu3.dcache.blocked::no_targets            997                       # number of cycles access was blocked
system.cpu3.dcache.avg_blocked_cycles::no_mshrs          nan                       # average number of cycles each access was blocked
system.cpu3.dcache.avg_blocked_cycles::no_targets 12589.769308                       # average number of cycles each access was blocked
system.cpu3.dcache.fast_writes                      0                       # number of fast writes performed
system.cpu3.dcache.cache_copies                     0                       # number of cache copies performed
system.cpu3.dcache.writebacks::writebacks        22089                       # number of writebacks
system.cpu3.dcache.writebacks::total            22089                       # number of writebacks
system.cpu3.dcache.ReadReq_mshr_hits::cpu3.data       115731                       # number of ReadReq MSHR hits
system.cpu3.dcache.ReadReq_mshr_hits::total       115731                       # number of ReadReq MSHR hits
system.cpu3.dcache.WriteReq_mshr_hits::cpu3.data         4295                       # number of WriteReq MSHR hits
system.cpu3.dcache.WriteReq_mshr_hits::total         4295                       # number of WriteReq MSHR hits
system.cpu3.dcache.demand_mshr_hits::cpu3.data       120026                       # number of demand (read+write) MSHR hits
system.cpu3.dcache.demand_mshr_hits::total       120026                       # number of demand (read+write) MSHR hits
system.cpu3.dcache.overall_mshr_hits::cpu3.data       120026                       # number of overall MSHR hits
system.cpu3.dcache.overall_mshr_hits::total       120026                       # number of overall MSHR hits
system.cpu3.dcache.ReadReq_mshr_misses::cpu3.data        84822                       # number of ReadReq MSHR misses
system.cpu3.dcache.ReadReq_mshr_misses::total        84822                       # number of ReadReq MSHR misses
system.cpu3.dcache.WriteReq_mshr_misses::cpu3.data         1468                       # number of WriteReq MSHR misses
system.cpu3.dcache.WriteReq_mshr_misses::total         1468                       # number of WriteReq MSHR misses
system.cpu3.dcache.LoadLockedReq_mshr_misses::cpu3.data           28                       # number of LoadLockedReq MSHR misses
system.cpu3.dcache.LoadLockedReq_mshr_misses::total           28                       # number of LoadLockedReq MSHR misses
system.cpu3.dcache.StoreCondReq_mshr_misses::cpu3.data           58                       # number of StoreCondReq MSHR misses
system.cpu3.dcache.StoreCondReq_mshr_misses::total           58                       # number of StoreCondReq MSHR misses
system.cpu3.dcache.demand_mshr_misses::cpu3.data        86290                       # number of demand (read+write) MSHR misses
system.cpu3.dcache.demand_mshr_misses::total        86290                       # number of demand (read+write) MSHR misses
system.cpu3.dcache.overall_mshr_misses::cpu3.data        86290                       # number of overall MSHR misses
system.cpu3.dcache.overall_mshr_misses::total        86290                       # number of overall MSHR misses
system.cpu3.dcache.ReadReq_mshr_miss_latency::cpu3.data   1459474000                       # number of ReadReq MSHR miss cycles
system.cpu3.dcache.ReadReq_mshr_miss_latency::total   1459474000                       # number of ReadReq MSHR miss cycles
system.cpu3.dcache.WriteReq_mshr_miss_latency::cpu3.data     67087998                       # number of WriteReq MSHR miss cycles
system.cpu3.dcache.WriteReq_mshr_miss_latency::total     67087998                       # number of WriteReq MSHR miss cycles
system.cpu3.dcache.LoadLockedReq_mshr_miss_latency::cpu3.data       138000                       # number of LoadLockedReq MSHR miss cycles
system.cpu3.dcache.LoadLockedReq_mshr_miss_latency::total       138000                       # number of LoadLockedReq MSHR miss cycles
system.cpu3.dcache.StoreCondReq_mshr_miss_latency::cpu3.data       512000                       # number of StoreCondReq MSHR miss cycles
system.cpu3.dcache.StoreCondReq_mshr_miss_latency::total       512000                       # number of StoreCondReq MSHR miss cycles
system.cpu3.dcache.demand_mshr_miss_latency::cpu3.data   1526561998                       # number of demand (read+write) MSHR miss cycles
system.cpu3.dcache.demand_mshr_miss_latency::total   1526561998                       # number of demand (read+write) MSHR miss cycles
system.cpu3.dcache.overall_mshr_miss_latency::cpu3.data   1526561998                       # number of overall MSHR miss cycles
system.cpu3.dcache.overall_mshr_miss_latency::total   1526561998                       # number of overall MSHR miss cycles
system.cpu3.dcache.ReadReq_mshr_miss_rate::cpu3.data     0.002813                       # mshr miss rate for ReadReq accesses
system.cpu3.dcache.ReadReq_mshr_miss_rate::total     0.002813                       # mshr miss rate for ReadReq accesses
system.cpu3.dcache.WriteReq_mshr_miss_rate::cpu3.data     0.000118                       # mshr miss rate for WriteReq accesses
system.cpu3.dcache.WriteReq_mshr_miss_rate::total     0.000118                       # mshr miss rate for WriteReq accesses
system.cpu3.dcache.LoadLockedReq_mshr_miss_rate::cpu3.data     0.239316                       # mshr miss rate for LoadLockedReq accesses
system.cpu3.dcache.LoadLockedReq_mshr_miss_rate::total     0.239316                       # mshr miss rate for LoadLockedReq accesses
system.cpu3.dcache.StoreCondReq_mshr_miss_rate::cpu3.data     0.513274                       # mshr miss rate for StoreCondReq accesses
system.cpu3.dcache.StoreCondReq_mshr_miss_rate::total     0.513274                       # mshr miss rate for StoreCondReq accesses
system.cpu3.dcache.demand_mshr_miss_rate::cpu3.data     0.002025                       # mshr miss rate for demand accesses
system.cpu3.dcache.demand_mshr_miss_rate::total     0.002025                       # mshr miss rate for demand accesses
system.cpu3.dcache.overall_mshr_miss_rate::cpu3.data     0.002025                       # mshr miss rate for overall accesses
system.cpu3.dcache.overall_mshr_miss_rate::total     0.002025                       # mshr miss rate for overall accesses
system.cpu3.dcache.ReadReq_avg_mshr_miss_latency::cpu3.data 17206.314400                       # average ReadReq mshr miss latency
system.cpu3.dcache.ReadReq_avg_mshr_miss_latency::total 17206.314400                       # average ReadReq mshr miss latency
system.cpu3.dcache.WriteReq_avg_mshr_miss_latency::cpu3.data 45700.271117                       # average WriteReq mshr miss latency
system.cpu3.dcache.WriteReq_avg_mshr_miss_latency::total 45700.271117                       # average WriteReq mshr miss latency
system.cpu3.dcache.LoadLockedReq_avg_mshr_miss_latency::cpu3.data  4928.571429                       # average LoadLockedReq mshr miss latency
system.cpu3.dcache.LoadLockedReq_avg_mshr_miss_latency::total  4928.571429                       # average LoadLockedReq mshr miss latency
system.cpu3.dcache.StoreCondReq_avg_mshr_miss_latency::cpu3.data  8827.586207                       # average StoreCondReq mshr miss latency
system.cpu3.dcache.StoreCondReq_avg_mshr_miss_latency::total  8827.586207                       # average StoreCondReq mshr miss latency
system.cpu3.dcache.demand_avg_mshr_miss_latency::cpu3.data 17691.064990                       # average overall mshr miss latency
system.cpu3.dcache.demand_avg_mshr_miss_latency::total 17691.064990                       # average overall mshr miss latency
system.cpu3.dcache.overall_avg_mshr_miss_latency::cpu3.data 17691.064990                       # average overall mshr miss latency
system.cpu3.dcache.overall_avg_mshr_miss_latency::total 17691.064990                       # average overall mshr miss latency
system.cpu3.dcache.no_allocate_misses               0                       # Number of misses that were no-allocate

---------- End Simulation Statistics   ----------
