
---------- Begin Simulation Statistics ----------
sim_seconds                                  0.063788                       # Number of seconds simulated
sim_ticks                                 63787773000                       # Number of ticks simulated
final_tick                                63787773000                       # Number of ticks from beginning of simulation (restored from checkpoints and never reset)
sim_freq                                 1000000000000                       # Frequency of simulated ticks
host_inst_rate                                 143573                       # Simulator instruction rate (inst/s)
host_op_rate                                   143573                       # Simulator op (including micro ops) rate (op/s)
host_tick_rate                               15637881                       # Simulator tick rate (ticks/s)
host_mem_usage                                 371580                       # Number of bytes of host memory used
host_seconds                                  4079.05                       # Real time elapsed on the host
sim_insts                                   585641146                       # Number of instructions simulated
sim_ops                                     585641146                       # Number of ops (including micro ops) simulated
system.physmem.bytes_read::cpu0.inst           234176                       # Number of bytes read from this memory
system.physmem.bytes_read::cpu0.data          1432320                       # Number of bytes read from this memory
system.physmem.bytes_read::cpu1.inst            17920                       # Number of bytes read from this memory
system.physmem.bytes_read::cpu1.data           719104                       # Number of bytes read from this memory
system.physmem.bytes_read::cpu2.inst             4288                       # Number of bytes read from this memory
system.physmem.bytes_read::cpu2.data           726016                       # Number of bytes read from this memory
system.physmem.bytes_read::cpu3.inst             8768                       # Number of bytes read from this memory
system.physmem.bytes_read::cpu3.data           753536                       # Number of bytes read from this memory
system.physmem.bytes_read::total              3896128                       # Number of bytes read from this memory
system.physmem.bytes_inst_read::cpu0.inst       234176                       # Number of instructions bytes read from this memory
system.physmem.bytes_inst_read::cpu1.inst        17920                       # Number of instructions bytes read from this memory
system.physmem.bytes_inst_read::cpu2.inst         4288                       # Number of instructions bytes read from this memory
system.physmem.bytes_inst_read::cpu3.inst         8768                       # Number of instructions bytes read from this memory
system.physmem.bytes_inst_read::total          265152                       # Number of instructions bytes read from this memory
system.physmem.bytes_written::writebacks      2398848                       # Number of bytes written to this memory
system.physmem.bytes_written::total           2398848                       # Number of bytes written to this memory
system.physmem.num_reads::cpu0.inst              3659                       # Number of read requests responded to by this memory
system.physmem.num_reads::cpu0.data             22380                       # Number of read requests responded to by this memory
system.physmem.num_reads::cpu1.inst               280                       # Number of read requests responded to by this memory
system.physmem.num_reads::cpu1.data             11236                       # Number of read requests responded to by this memory
system.physmem.num_reads::cpu2.inst                67                       # Number of read requests responded to by this memory
system.physmem.num_reads::cpu2.data             11344                       # Number of read requests responded to by this memory
system.physmem.num_reads::cpu3.inst               137                       # Number of read requests responded to by this memory
system.physmem.num_reads::cpu3.data             11774                       # Number of read requests responded to by this memory
system.physmem.num_reads::total                 60877                       # Number of read requests responded to by this memory
system.physmem.num_writes::writebacks           37482                       # Number of write requests responded to by this memory
system.physmem.num_writes::total                37482                       # Number of write requests responded to by this memory
system.physmem.bw_read::cpu0.inst             3671174                       # Total read bandwidth from this memory (bytes/s)
system.physmem.bw_read::cpu0.data            22454460                       # Total read bandwidth from this memory (bytes/s)
system.physmem.bw_read::cpu1.inst              280932                       # Total read bandwidth from this memory (bytes/s)
system.physmem.bw_read::cpu1.data            11273383                       # Total read bandwidth from this memory (bytes/s)
system.physmem.bw_read::cpu2.inst               67223                       # Total read bandwidth from this memory (bytes/s)
system.physmem.bw_read::cpu2.data            11381742                       # Total read bandwidth from this memory (bytes/s)
system.physmem.bw_read::cpu3.inst              137456                       # Total read bandwidth from this memory (bytes/s)
system.physmem.bw_read::cpu3.data            11813173                       # Total read bandwidth from this memory (bytes/s)
system.physmem.bw_read::total                61079543                       # Total read bandwidth from this memory (bytes/s)
system.physmem.bw_inst_read::cpu0.inst        3671174                       # Instruction read bandwidth from this memory (bytes/s)
system.physmem.bw_inst_read::cpu1.inst         280932                       # Instruction read bandwidth from this memory (bytes/s)
system.physmem.bw_inst_read::cpu2.inst          67223                       # Instruction read bandwidth from this memory (bytes/s)
system.physmem.bw_inst_read::cpu3.inst         137456                       # Instruction read bandwidth from this memory (bytes/s)
system.physmem.bw_inst_read::total            4156784                       # Instruction read bandwidth from this memory (bytes/s)
system.physmem.bw_write::writebacks          37606706                       # Write bandwidth from this memory (bytes/s)
system.physmem.bw_write::total               37606706                       # Write bandwidth from this memory (bytes/s)
system.physmem.bw_total::writebacks          37606706                       # Total bandwidth to/from this memory (bytes/s)
system.physmem.bw_total::cpu0.inst            3671174                       # Total bandwidth to/from this memory (bytes/s)
system.physmem.bw_total::cpu0.data           22454460                       # Total bandwidth to/from this memory (bytes/s)
system.physmem.bw_total::cpu1.inst             280932                       # Total bandwidth to/from this memory (bytes/s)
system.physmem.bw_total::cpu1.data           11273383                       # Total bandwidth to/from this memory (bytes/s)
system.physmem.bw_total::cpu2.inst              67223                       # Total bandwidth to/from this memory (bytes/s)
system.physmem.bw_total::cpu2.data           11381742                       # Total bandwidth to/from this memory (bytes/s)
system.physmem.bw_total::cpu3.inst             137456                       # Total bandwidth to/from this memory (bytes/s)
system.physmem.bw_total::cpu3.data           11813173                       # Total bandwidth to/from this memory (bytes/s)
system.physmem.bw_total::total               98686248                       # Total bandwidth to/from this memory (bytes/s)
workload.num_syscalls                             806                       # Number of system calls
system.l2.replacements                          63368                       # number of replacements
system.l2.tagsinuse                       3712.748092                       # Cycle average of tags in use
system.l2.total_refs                           670826                       # Total number of references to valid blocks.
system.l2.sampled_refs                          67367                       # Sample count of references to valid blocks.
system.l2.avg_refs                           9.957783                       # Average number of references to valid blocks.
system.l2.warmup_cycle                    32221095000                       # Cycle when the warmup percentage was hit.
system.l2.occ_blocks::writebacks          1128.963494                       # Average occupied blocks per requestor
system.l2.occ_blocks::cpu0.inst            135.642757                       # Average occupied blocks per requestor
system.l2.occ_blocks::cpu0.data            678.730412                       # Average occupied blocks per requestor
system.l2.occ_blocks::cpu1.inst             18.108047                       # Average occupied blocks per requestor
system.l2.occ_blocks::cpu1.data            537.512777                       # Average occupied blocks per requestor
system.l2.occ_blocks::cpu2.inst              4.643988                       # Average occupied blocks per requestor
system.l2.occ_blocks::cpu2.data            564.903917                       # Average occupied blocks per requestor
system.l2.occ_blocks::cpu3.inst             12.941813                       # Average occupied blocks per requestor
system.l2.occ_blocks::cpu3.data            631.300888                       # Average occupied blocks per requestor
system.l2.occ_percent::writebacks            0.275626                       # Average percentage of cache occupancy
system.l2.occ_percent::cpu0.inst             0.033116                       # Average percentage of cache occupancy
system.l2.occ_percent::cpu0.data             0.165706                       # Average percentage of cache occupancy
system.l2.occ_percent::cpu1.inst             0.004421                       # Average percentage of cache occupancy
system.l2.occ_percent::cpu1.data             0.131229                       # Average percentage of cache occupancy
system.l2.occ_percent::cpu2.inst             0.001134                       # Average percentage of cache occupancy
system.l2.occ_percent::cpu2.data             0.137916                       # Average percentage of cache occupancy
system.l2.occ_percent::cpu3.inst             0.003160                       # Average percentage of cache occupancy
system.l2.occ_percent::cpu3.data             0.154126                       # Average percentage of cache occupancy
system.l2.occ_percent::total                 0.906433                       # Average percentage of cache occupancy
system.l2.ReadReq_hits::cpu0.inst              315673                       # number of ReadReq hits
system.l2.ReadReq_hits::cpu0.data               75227                       # number of ReadReq hits
system.l2.ReadReq_hits::cpu1.inst                 280                       # number of ReadReq hits
system.l2.ReadReq_hits::cpu1.data               65249                       # number of ReadReq hits
system.l2.ReadReq_hits::cpu2.inst                 546                       # number of ReadReq hits
system.l2.ReadReq_hits::cpu2.data               64351                       # number of ReadReq hits
system.l2.ReadReq_hits::cpu3.inst                 494                       # number of ReadReq hits
system.l2.ReadReq_hits::cpu3.data               66104                       # number of ReadReq hits
system.l2.ReadReq_hits::total                  587924                       # number of ReadReq hits
system.l2.Writeback_hits::writebacks           101913                       # number of Writeback hits
system.l2.Writeback_hits::total                101913                       # number of Writeback hits
system.l2.UpgradeReq_hits::cpu0.data              167                       # number of UpgradeReq hits
system.l2.UpgradeReq_hits::cpu1.data              170                       # number of UpgradeReq hits
system.l2.UpgradeReq_hits::cpu2.data              139                       # number of UpgradeReq hits
system.l2.UpgradeReq_hits::cpu3.data              140                       # number of UpgradeReq hits
system.l2.UpgradeReq_hits::total                  616                       # number of UpgradeReq hits
system.l2.SCUpgradeReq_hits::cpu0.data              5                       # number of SCUpgradeReq hits
system.l2.SCUpgradeReq_hits::cpu2.data              2                       # number of SCUpgradeReq hits
system.l2.SCUpgradeReq_hits::cpu3.data              1                       # number of SCUpgradeReq hits
system.l2.SCUpgradeReq_hits::total                  8                       # number of SCUpgradeReq hits
system.l2.ReadExReq_hits::cpu0.data               253                       # number of ReadExReq hits
system.l2.ReadExReq_hits::cpu1.data                67                       # number of ReadExReq hits
system.l2.ReadExReq_hits::cpu2.data               133                       # number of ReadExReq hits
system.l2.ReadExReq_hits::cpu3.data                97                       # number of ReadExReq hits
system.l2.ReadExReq_hits::total                   550                       # number of ReadExReq hits
system.l2.demand_hits::cpu0.inst               315673                       # number of demand (read+write) hits
system.l2.demand_hits::cpu0.data                75480                       # number of demand (read+write) hits
system.l2.demand_hits::cpu1.inst                  280                       # number of demand (read+write) hits
system.l2.demand_hits::cpu1.data                65316                       # number of demand (read+write) hits
system.l2.demand_hits::cpu2.inst                  546                       # number of demand (read+write) hits
system.l2.demand_hits::cpu2.data                64484                       # number of demand (read+write) hits
system.l2.demand_hits::cpu3.inst                  494                       # number of demand (read+write) hits
system.l2.demand_hits::cpu3.data                66201                       # number of demand (read+write) hits
system.l2.demand_hits::total                   588474                       # number of demand (read+write) hits
system.l2.overall_hits::cpu0.inst              315673                       # number of overall hits
system.l2.overall_hits::cpu0.data               75480                       # number of overall hits
system.l2.overall_hits::cpu1.inst                 280                       # number of overall hits
system.l2.overall_hits::cpu1.data               65316                       # number of overall hits
system.l2.overall_hits::cpu2.inst                 546                       # number of overall hits
system.l2.overall_hits::cpu2.data               64484                       # number of overall hits
system.l2.overall_hits::cpu3.inst                 494                       # number of overall hits
system.l2.overall_hits::cpu3.data               66201                       # number of overall hits
system.l2.overall_hits::total                  588474                       # number of overall hits
system.l2.ReadReq_misses::cpu0.inst              3681                       # number of ReadReq misses
system.l2.ReadReq_misses::cpu0.data             13296                       # number of ReadReq misses
system.l2.ReadReq_misses::cpu1.inst               369                       # number of ReadReq misses
system.l2.ReadReq_misses::cpu1.data             10157                       # number of ReadReq misses
system.l2.ReadReq_misses::cpu2.inst               121                       # number of ReadReq misses
system.l2.ReadReq_misses::cpu2.data             10251                       # number of ReadReq misses
system.l2.ReadReq_misses::cpu3.inst               212                       # number of ReadReq misses
system.l2.ReadReq_misses::cpu3.data             10670                       # number of ReadReq misses
system.l2.ReadReq_misses::total                 48757                       # number of ReadReq misses
system.l2.UpgradeReq_misses::cpu0.data              9                       # number of UpgradeReq misses
system.l2.UpgradeReq_misses::cpu1.data              3                       # number of UpgradeReq misses
system.l2.UpgradeReq_misses::cpu2.data              3                       # number of UpgradeReq misses
system.l2.UpgradeReq_misses::total                 15                       # number of UpgradeReq misses
system.l2.SCUpgradeReq_misses::cpu0.data            6                       # number of SCUpgradeReq misses
system.l2.SCUpgradeReq_misses::cpu2.data            1                       # number of SCUpgradeReq misses
system.l2.SCUpgradeReq_misses::cpu3.data            6                       # number of SCUpgradeReq misses
system.l2.SCUpgradeReq_misses::total               13                       # number of SCUpgradeReq misses
system.l2.ReadExReq_misses::cpu0.data            9104                       # number of ReadExReq misses
system.l2.ReadExReq_misses::cpu1.data            1127                       # number of ReadExReq misses
system.l2.ReadExReq_misses::cpu2.data            1121                       # number of ReadExReq misses
system.l2.ReadExReq_misses::cpu3.data            1138                       # number of ReadExReq misses
system.l2.ReadExReq_misses::total               12490                       # number of ReadExReq misses
system.l2.demand_misses::cpu0.inst               3681                       # number of demand (read+write) misses
system.l2.demand_misses::cpu0.data              22400                       # number of demand (read+write) misses
system.l2.demand_misses::cpu1.inst                369                       # number of demand (read+write) misses
system.l2.demand_misses::cpu1.data              11284                       # number of demand (read+write) misses
system.l2.demand_misses::cpu2.inst                121                       # number of demand (read+write) misses
system.l2.demand_misses::cpu2.data              11372                       # number of demand (read+write) misses
system.l2.demand_misses::cpu3.inst                212                       # number of demand (read+write) misses
system.l2.demand_misses::cpu3.data              11808                       # number of demand (read+write) misses
system.l2.demand_misses::total                  61247                       # number of demand (read+write) misses
system.l2.overall_misses::cpu0.inst              3681                       # number of overall misses
system.l2.overall_misses::cpu0.data             22400                       # number of overall misses
system.l2.overall_misses::cpu1.inst               369                       # number of overall misses
system.l2.overall_misses::cpu1.data             11284                       # number of overall misses
system.l2.overall_misses::cpu2.inst               121                       # number of overall misses
system.l2.overall_misses::cpu2.data             11372                       # number of overall misses
system.l2.overall_misses::cpu3.inst               212                       # number of overall misses
system.l2.overall_misses::cpu3.data             11808                       # number of overall misses
system.l2.overall_misses::total                 61247                       # number of overall misses
system.l2.ReadReq_miss_latency::cpu0.inst    191288000                       # number of ReadReq miss cycles
system.l2.ReadReq_miss_latency::cpu0.data    700207000                       # number of ReadReq miss cycles
system.l2.ReadReq_miss_latency::cpu1.inst     18585000                       # number of ReadReq miss cycles
system.l2.ReadReq_miss_latency::cpu1.data    535861000                       # number of ReadReq miss cycles
system.l2.ReadReq_miss_latency::cpu2.inst      5938000                       # number of ReadReq miss cycles
system.l2.ReadReq_miss_latency::cpu2.data    541135000                       # number of ReadReq miss cycles
system.l2.ReadReq_miss_latency::cpu3.inst     10637000                       # number of ReadReq miss cycles
system.l2.ReadReq_miss_latency::cpu3.data    563140000                       # number of ReadReq miss cycles
system.l2.ReadReq_miss_latency::total      2566791000                       # number of ReadReq miss cycles
system.l2.UpgradeReq_miss_latency::cpu0.data        52000                       # number of UpgradeReq miss cycles
system.l2.UpgradeReq_miss_latency::cpu1.data       156000                       # number of UpgradeReq miss cycles
system.l2.UpgradeReq_miss_latency::cpu2.data       156000                       # number of UpgradeReq miss cycles
system.l2.UpgradeReq_miss_latency::total       364000                       # number of UpgradeReq miss cycles
system.l2.ReadExReq_miss_latency::cpu0.data    478229000                       # number of ReadExReq miss cycles
system.l2.ReadExReq_miss_latency::cpu1.data     59306000                       # number of ReadExReq miss cycles
system.l2.ReadExReq_miss_latency::cpu2.data     58921000                       # number of ReadExReq miss cycles
system.l2.ReadExReq_miss_latency::cpu3.data     59859000                       # number of ReadExReq miss cycles
system.l2.ReadExReq_miss_latency::total     656315000                       # number of ReadExReq miss cycles
system.l2.demand_miss_latency::cpu0.inst    191288000                       # number of demand (read+write) miss cycles
system.l2.demand_miss_latency::cpu0.data   1178436000                       # number of demand (read+write) miss cycles
system.l2.demand_miss_latency::cpu1.inst     18585000                       # number of demand (read+write) miss cycles
system.l2.demand_miss_latency::cpu1.data    595167000                       # number of demand (read+write) miss cycles
system.l2.demand_miss_latency::cpu2.inst      5938000                       # number of demand (read+write) miss cycles
system.l2.demand_miss_latency::cpu2.data    600056000                       # number of demand (read+write) miss cycles
system.l2.demand_miss_latency::cpu3.inst     10637000                       # number of demand (read+write) miss cycles
system.l2.demand_miss_latency::cpu3.data    622999000                       # number of demand (read+write) miss cycles
system.l2.demand_miss_latency::total       3223106000                       # number of demand (read+write) miss cycles
system.l2.overall_miss_latency::cpu0.inst    191288000                       # number of overall miss cycles
system.l2.overall_miss_latency::cpu0.data   1178436000                       # number of overall miss cycles
system.l2.overall_miss_latency::cpu1.inst     18585000                       # number of overall miss cycles
system.l2.overall_miss_latency::cpu1.data    595167000                       # number of overall miss cycles
system.l2.overall_miss_latency::cpu2.inst      5938000                       # number of overall miss cycles
system.l2.overall_miss_latency::cpu2.data    600056000                       # number of overall miss cycles
system.l2.overall_miss_latency::cpu3.inst     10637000                       # number of overall miss cycles
system.l2.overall_miss_latency::cpu3.data    622999000                       # number of overall miss cycles
system.l2.overall_miss_latency::total      3223106000                       # number of overall miss cycles
system.l2.ReadReq_accesses::cpu0.inst          319354                       # number of ReadReq accesses(hits+misses)
system.l2.ReadReq_accesses::cpu0.data           88523                       # number of ReadReq accesses(hits+misses)
system.l2.ReadReq_accesses::cpu1.inst             649                       # number of ReadReq accesses(hits+misses)
system.l2.ReadReq_accesses::cpu1.data           75406                       # number of ReadReq accesses(hits+misses)
system.l2.ReadReq_accesses::cpu2.inst             667                       # number of ReadReq accesses(hits+misses)
system.l2.ReadReq_accesses::cpu2.data           74602                       # number of ReadReq accesses(hits+misses)
system.l2.ReadReq_accesses::cpu3.inst             706                       # number of ReadReq accesses(hits+misses)
system.l2.ReadReq_accesses::cpu3.data           76774                       # number of ReadReq accesses(hits+misses)
system.l2.ReadReq_accesses::total              636681                       # number of ReadReq accesses(hits+misses)
system.l2.Writeback_accesses::writebacks       101913                       # number of Writeback accesses(hits+misses)
system.l2.Writeback_accesses::total            101913                       # number of Writeback accesses(hits+misses)
system.l2.UpgradeReq_accesses::cpu0.data          176                       # number of UpgradeReq accesses(hits+misses)
system.l2.UpgradeReq_accesses::cpu1.data          173                       # number of UpgradeReq accesses(hits+misses)
system.l2.UpgradeReq_accesses::cpu2.data          142                       # number of UpgradeReq accesses(hits+misses)
system.l2.UpgradeReq_accesses::cpu3.data          140                       # number of UpgradeReq accesses(hits+misses)
system.l2.UpgradeReq_accesses::total              631                       # number of UpgradeReq accesses(hits+misses)
system.l2.SCUpgradeReq_accesses::cpu0.data           11                       # number of SCUpgradeReq accesses(hits+misses)
system.l2.SCUpgradeReq_accesses::cpu2.data            3                       # number of SCUpgradeReq accesses(hits+misses)
system.l2.SCUpgradeReq_accesses::cpu3.data            7                       # number of SCUpgradeReq accesses(hits+misses)
system.l2.SCUpgradeReq_accesses::total             21                       # number of SCUpgradeReq accesses(hits+misses)
system.l2.ReadExReq_accesses::cpu0.data          9357                       # number of ReadExReq accesses(hits+misses)
system.l2.ReadExReq_accesses::cpu1.data          1194                       # number of ReadExReq accesses(hits+misses)
system.l2.ReadExReq_accesses::cpu2.data          1254                       # number of ReadExReq accesses(hits+misses)
system.l2.ReadExReq_accesses::cpu3.data          1235                       # number of ReadExReq accesses(hits+misses)
system.l2.ReadExReq_accesses::total             13040                       # number of ReadExReq accesses(hits+misses)
system.l2.demand_accesses::cpu0.inst           319354                       # number of demand (read+write) accesses
system.l2.demand_accesses::cpu0.data            97880                       # number of demand (read+write) accesses
system.l2.demand_accesses::cpu1.inst              649                       # number of demand (read+write) accesses
system.l2.demand_accesses::cpu1.data            76600                       # number of demand (read+write) accesses
system.l2.demand_accesses::cpu2.inst              667                       # number of demand (read+write) accesses
system.l2.demand_accesses::cpu2.data            75856                       # number of demand (read+write) accesses
system.l2.demand_accesses::cpu3.inst              706                       # number of demand (read+write) accesses
system.l2.demand_accesses::cpu3.data            78009                       # number of demand (read+write) accesses
system.l2.demand_accesses::total               649721                       # number of demand (read+write) accesses
system.l2.overall_accesses::cpu0.inst          319354                       # number of overall (read+write) accesses
system.l2.overall_accesses::cpu0.data           97880                       # number of overall (read+write) accesses
system.l2.overall_accesses::cpu1.inst             649                       # number of overall (read+write) accesses
system.l2.overall_accesses::cpu1.data           76600                       # number of overall (read+write) accesses
system.l2.overall_accesses::cpu2.inst             667                       # number of overall (read+write) accesses
system.l2.overall_accesses::cpu2.data           75856                       # number of overall (read+write) accesses
system.l2.overall_accesses::cpu3.inst             706                       # number of overall (read+write) accesses
system.l2.overall_accesses::cpu3.data           78009                       # number of overall (read+write) accesses
system.l2.overall_accesses::total              649721                       # number of overall (read+write) accesses
system.l2.ReadReq_miss_rate::cpu0.inst       0.011526                       # miss rate for ReadReq accesses
system.l2.ReadReq_miss_rate::cpu0.data       0.150198                       # miss rate for ReadReq accesses
system.l2.ReadReq_miss_rate::cpu1.inst       0.568567                       # miss rate for ReadReq accesses
system.l2.ReadReq_miss_rate::cpu1.data       0.134698                       # miss rate for ReadReq accesses
system.l2.ReadReq_miss_rate::cpu2.inst       0.181409                       # miss rate for ReadReq accesses
system.l2.ReadReq_miss_rate::cpu2.data       0.137409                       # miss rate for ReadReq accesses
system.l2.ReadReq_miss_rate::cpu3.inst       0.300283                       # miss rate for ReadReq accesses
system.l2.ReadReq_miss_rate::cpu3.data       0.138979                       # miss rate for ReadReq accesses
system.l2.ReadReq_miss_rate::total           0.076580                       # miss rate for ReadReq accesses
system.l2.UpgradeReq_miss_rate::cpu0.data     0.051136                       # miss rate for UpgradeReq accesses
system.l2.UpgradeReq_miss_rate::cpu1.data     0.017341                       # miss rate for UpgradeReq accesses
system.l2.UpgradeReq_miss_rate::cpu2.data     0.021127                       # miss rate for UpgradeReq accesses
system.l2.UpgradeReq_miss_rate::total        0.023772                       # miss rate for UpgradeReq accesses
system.l2.SCUpgradeReq_miss_rate::cpu0.data     0.545455                       # miss rate for SCUpgradeReq accesses
system.l2.SCUpgradeReq_miss_rate::cpu2.data     0.333333                       # miss rate for SCUpgradeReq accesses
system.l2.SCUpgradeReq_miss_rate::cpu3.data     0.857143                       # miss rate for SCUpgradeReq accesses
system.l2.SCUpgradeReq_miss_rate::total      0.619048                       # miss rate for SCUpgradeReq accesses
system.l2.ReadExReq_miss_rate::cpu0.data     0.972961                       # miss rate for ReadExReq accesses
system.l2.ReadExReq_miss_rate::cpu1.data     0.943886                       # miss rate for ReadExReq accesses
system.l2.ReadExReq_miss_rate::cpu2.data     0.893939                       # miss rate for ReadExReq accesses
system.l2.ReadExReq_miss_rate::cpu3.data     0.921457                       # miss rate for ReadExReq accesses
system.l2.ReadExReq_miss_rate::total         0.957822                       # miss rate for ReadExReq accesses
system.l2.demand_miss_rate::cpu0.inst        0.011526                       # miss rate for demand accesses
system.l2.demand_miss_rate::cpu0.data        0.228852                       # miss rate for demand accesses
system.l2.demand_miss_rate::cpu1.inst        0.568567                       # miss rate for demand accesses
system.l2.demand_miss_rate::cpu1.data        0.147311                       # miss rate for demand accesses
system.l2.demand_miss_rate::cpu2.inst        0.181409                       # miss rate for demand accesses
system.l2.demand_miss_rate::cpu2.data        0.149916                       # miss rate for demand accesses
system.l2.demand_miss_rate::cpu3.inst        0.300283                       # miss rate for demand accesses
system.l2.demand_miss_rate::cpu3.data        0.151367                       # miss rate for demand accesses
system.l2.demand_miss_rate::total            0.094267                       # miss rate for demand accesses
system.l2.overall_miss_rate::cpu0.inst       0.011526                       # miss rate for overall accesses
system.l2.overall_miss_rate::cpu0.data       0.228852                       # miss rate for overall accesses
system.l2.overall_miss_rate::cpu1.inst       0.568567                       # miss rate for overall accesses
system.l2.overall_miss_rate::cpu1.data       0.147311                       # miss rate for overall accesses
system.l2.overall_miss_rate::cpu2.inst       0.181409                       # miss rate for overall accesses
system.l2.overall_miss_rate::cpu2.data       0.149916                       # miss rate for overall accesses
system.l2.overall_miss_rate::cpu3.inst       0.300283                       # miss rate for overall accesses
system.l2.overall_miss_rate::cpu3.data       0.151367                       # miss rate for overall accesses
system.l2.overall_miss_rate::total           0.094267                       # miss rate for overall accesses
system.l2.ReadReq_avg_miss_latency::cpu0.inst 51966.313502                       # average ReadReq miss latency
system.l2.ReadReq_avg_miss_latency::cpu0.data 52662.981348                       # average ReadReq miss latency
system.l2.ReadReq_avg_miss_latency::cpu1.inst 50365.853659                       # average ReadReq miss latency
system.l2.ReadReq_avg_miss_latency::cpu1.data 52757.802501                       # average ReadReq miss latency
system.l2.ReadReq_avg_miss_latency::cpu2.inst 49074.380165                       # average ReadReq miss latency
system.l2.ReadReq_avg_miss_latency::cpu2.data 52788.508438                       # average ReadReq miss latency
system.l2.ReadReq_avg_miss_latency::cpu3.inst 50174.528302                       # average ReadReq miss latency
system.l2.ReadReq_avg_miss_latency::cpu3.data 52777.881912                       # average ReadReq miss latency
system.l2.ReadReq_avg_miss_latency::total 52644.563857                       # average ReadReq miss latency
system.l2.UpgradeReq_avg_miss_latency::cpu0.data  5777.777778                       # average UpgradeReq miss latency
system.l2.UpgradeReq_avg_miss_latency::cpu1.data        52000                       # average UpgradeReq miss latency
system.l2.UpgradeReq_avg_miss_latency::cpu2.data        52000                       # average UpgradeReq miss latency
system.l2.UpgradeReq_avg_miss_latency::total 24266.666667                       # average UpgradeReq miss latency
system.l2.ReadExReq_avg_miss_latency::cpu0.data 52529.547452                       # average ReadExReq miss latency
system.l2.ReadExReq_avg_miss_latency::cpu1.data 52622.892635                       # average ReadExReq miss latency
system.l2.ReadExReq_avg_miss_latency::cpu2.data 52561.106155                       # average ReadExReq miss latency
system.l2.ReadExReq_avg_miss_latency::cpu3.data 52600.175747                       # average ReadExReq miss latency
system.l2.ReadExReq_avg_miss_latency::total 52547.237790                       # average ReadExReq miss latency
system.l2.demand_avg_miss_latency::cpu0.inst 51966.313502                       # average overall miss latency
system.l2.demand_avg_miss_latency::cpu0.data 52608.750000                       # average overall miss latency
system.l2.demand_avg_miss_latency::cpu1.inst 50365.853659                       # average overall miss latency
system.l2.demand_avg_miss_latency::cpu1.data 52744.328252                       # average overall miss latency
system.l2.demand_avg_miss_latency::cpu2.inst 49074.380165                       # average overall miss latency
system.l2.demand_avg_miss_latency::cpu2.data 52766.092156                       # average overall miss latency
system.l2.demand_avg_miss_latency::cpu3.inst 50174.528302                       # average overall miss latency
system.l2.demand_avg_miss_latency::cpu3.data 52760.755420                       # average overall miss latency
system.l2.demand_avg_miss_latency::total 52624.716313                       # average overall miss latency
system.l2.overall_avg_miss_latency::cpu0.inst 51966.313502                       # average overall miss latency
system.l2.overall_avg_miss_latency::cpu0.data 52608.750000                       # average overall miss latency
system.l2.overall_avg_miss_latency::cpu1.inst 50365.853659                       # average overall miss latency
system.l2.overall_avg_miss_latency::cpu1.data 52744.328252                       # average overall miss latency
system.l2.overall_avg_miss_latency::cpu2.inst 49074.380165                       # average overall miss latency
system.l2.overall_avg_miss_latency::cpu2.data 52766.092156                       # average overall miss latency
system.l2.overall_avg_miss_latency::cpu3.inst 50174.528302                       # average overall miss latency
system.l2.overall_avg_miss_latency::cpu3.data 52760.755420                       # average overall miss latency
system.l2.overall_avg_miss_latency::total 52624.716313                       # average overall miss latency
system.l2.blocked_cycles::no_mshrs                  0                       # number of cycles access was blocked
system.l2.blocked_cycles::no_targets                0                       # number of cycles access was blocked
system.l2.blocked::no_mshrs                         0                       # number of cycles access was blocked
system.l2.blocked::no_targets                       0                       # number of cycles access was blocked
system.l2.avg_blocked_cycles::no_mshrs            nan                       # average number of cycles each access was blocked
system.l2.avg_blocked_cycles::no_targets          nan                       # average number of cycles each access was blocked
system.l2.fast_writes                               0                       # number of fast writes performed
system.l2.cache_copies                              0                       # number of cache copies performed
system.l2.writebacks::writebacks                37482                       # number of writebacks
system.l2.writebacks::total                     37482                       # number of writebacks
system.l2.ReadReq_mshr_hits::cpu0.inst             22                       # number of ReadReq MSHR hits
system.l2.ReadReq_mshr_hits::cpu0.data             19                       # number of ReadReq MSHR hits
system.l2.ReadReq_mshr_hits::cpu1.inst             89                       # number of ReadReq MSHR hits
system.l2.ReadReq_mshr_hits::cpu1.data             48                       # number of ReadReq MSHR hits
system.l2.ReadReq_mshr_hits::cpu2.inst             54                       # number of ReadReq MSHR hits
system.l2.ReadReq_mshr_hits::cpu2.data             28                       # number of ReadReq MSHR hits
system.l2.ReadReq_mshr_hits::cpu3.inst             75                       # number of ReadReq MSHR hits
system.l2.ReadReq_mshr_hits::cpu3.data             34                       # number of ReadReq MSHR hits
system.l2.ReadReq_mshr_hits::total                369                       # number of ReadReq MSHR hits
system.l2.demand_mshr_hits::cpu0.inst              22                       # number of demand (read+write) MSHR hits
system.l2.demand_mshr_hits::cpu0.data              19                       # number of demand (read+write) MSHR hits
system.l2.demand_mshr_hits::cpu1.inst              89                       # number of demand (read+write) MSHR hits
system.l2.demand_mshr_hits::cpu1.data              48                       # number of demand (read+write) MSHR hits
system.l2.demand_mshr_hits::cpu2.inst              54                       # number of demand (read+write) MSHR hits
system.l2.demand_mshr_hits::cpu2.data              28                       # number of demand (read+write) MSHR hits
system.l2.demand_mshr_hits::cpu3.inst              75                       # number of demand (read+write) MSHR hits
system.l2.demand_mshr_hits::cpu3.data              34                       # number of demand (read+write) MSHR hits
system.l2.demand_mshr_hits::total                 369                       # number of demand (read+write) MSHR hits
system.l2.overall_mshr_hits::cpu0.inst             22                       # number of overall MSHR hits
system.l2.overall_mshr_hits::cpu0.data             19                       # number of overall MSHR hits
system.l2.overall_mshr_hits::cpu1.inst             89                       # number of overall MSHR hits
system.l2.overall_mshr_hits::cpu1.data             48                       # number of overall MSHR hits
system.l2.overall_mshr_hits::cpu2.inst             54                       # number of overall MSHR hits
system.l2.overall_mshr_hits::cpu2.data             28                       # number of overall MSHR hits
system.l2.overall_mshr_hits::cpu3.inst             75                       # number of overall MSHR hits
system.l2.overall_mshr_hits::cpu3.data             34                       # number of overall MSHR hits
system.l2.overall_mshr_hits::total                369                       # number of overall MSHR hits
system.l2.ReadReq_mshr_misses::cpu0.inst         3659                       # number of ReadReq MSHR misses
system.l2.ReadReq_mshr_misses::cpu0.data        13277                       # number of ReadReq MSHR misses
system.l2.ReadReq_mshr_misses::cpu1.inst          280                       # number of ReadReq MSHR misses
system.l2.ReadReq_mshr_misses::cpu1.data        10109                       # number of ReadReq MSHR misses
system.l2.ReadReq_mshr_misses::cpu2.inst           67                       # number of ReadReq MSHR misses
system.l2.ReadReq_mshr_misses::cpu2.data        10223                       # number of ReadReq MSHR misses
system.l2.ReadReq_mshr_misses::cpu3.inst          137                       # number of ReadReq MSHR misses
system.l2.ReadReq_mshr_misses::cpu3.data        10636                       # number of ReadReq MSHR misses
system.l2.ReadReq_mshr_misses::total            48388                       # number of ReadReq MSHR misses
system.l2.UpgradeReq_mshr_misses::cpu0.data            9                       # number of UpgradeReq MSHR misses
system.l2.UpgradeReq_mshr_misses::cpu1.data            3                       # number of UpgradeReq MSHR misses
system.l2.UpgradeReq_mshr_misses::cpu2.data            3                       # number of UpgradeReq MSHR misses
system.l2.UpgradeReq_mshr_misses::total            15                       # number of UpgradeReq MSHR misses
system.l2.SCUpgradeReq_mshr_misses::cpu0.data            6                       # number of SCUpgradeReq MSHR misses
system.l2.SCUpgradeReq_mshr_misses::cpu2.data            1                       # number of SCUpgradeReq MSHR misses
system.l2.SCUpgradeReq_mshr_misses::cpu3.data            6                       # number of SCUpgradeReq MSHR misses
system.l2.SCUpgradeReq_mshr_misses::total           13                       # number of SCUpgradeReq MSHR misses
system.l2.ReadExReq_mshr_misses::cpu0.data         9104                       # number of ReadExReq MSHR misses
system.l2.ReadExReq_mshr_misses::cpu1.data         1127                       # number of ReadExReq MSHR misses
system.l2.ReadExReq_mshr_misses::cpu2.data         1121                       # number of ReadExReq MSHR misses
system.l2.ReadExReq_mshr_misses::cpu3.data         1138                       # number of ReadExReq MSHR misses
system.l2.ReadExReq_mshr_misses::total          12490                       # number of ReadExReq MSHR misses
system.l2.demand_mshr_misses::cpu0.inst          3659                       # number of demand (read+write) MSHR misses
system.l2.demand_mshr_misses::cpu0.data         22381                       # number of demand (read+write) MSHR misses
system.l2.demand_mshr_misses::cpu1.inst           280                       # number of demand (read+write) MSHR misses
system.l2.demand_mshr_misses::cpu1.data         11236                       # number of demand (read+write) MSHR misses
system.l2.demand_mshr_misses::cpu2.inst            67                       # number of demand (read+write) MSHR misses
system.l2.demand_mshr_misses::cpu2.data         11344                       # number of demand (read+write) MSHR misses
system.l2.demand_mshr_misses::cpu3.inst           137                       # number of demand (read+write) MSHR misses
system.l2.demand_mshr_misses::cpu3.data         11774                       # number of demand (read+write) MSHR misses
system.l2.demand_mshr_misses::total             60878                       # number of demand (read+write) MSHR misses
system.l2.overall_mshr_misses::cpu0.inst         3659                       # number of overall MSHR misses
system.l2.overall_mshr_misses::cpu0.data        22381                       # number of overall MSHR misses
system.l2.overall_mshr_misses::cpu1.inst          280                       # number of overall MSHR misses
system.l2.overall_mshr_misses::cpu1.data        11236                       # number of overall MSHR misses
system.l2.overall_mshr_misses::cpu2.inst           67                       # number of overall MSHR misses
system.l2.overall_mshr_misses::cpu2.data        11344                       # number of overall MSHR misses
system.l2.overall_mshr_misses::cpu3.inst          137                       # number of overall MSHR misses
system.l2.overall_mshr_misses::cpu3.data        11774                       # number of overall MSHR misses
system.l2.overall_mshr_misses::total            60878                       # number of overall MSHR misses
system.l2.ReadReq_mshr_miss_latency::cpu0.inst    146485000                       # number of ReadReq MSHR miss cycles
system.l2.ReadReq_mshr_miss_latency::cpu0.data    540226000                       # number of ReadReq MSHR miss cycles
system.l2.ReadReq_mshr_miss_latency::cpu1.inst     11238000                       # number of ReadReq MSHR miss cycles
system.l2.ReadReq_mshr_miss_latency::cpu1.data    412754000                       # number of ReadReq MSHR miss cycles
system.l2.ReadReq_mshr_miss_latency::cpu2.inst      2699000                       # number of ReadReq MSHR miss cycles
system.l2.ReadReq_mshr_miss_latency::cpu2.data    417327000                       # number of ReadReq MSHR miss cycles
system.l2.ReadReq_mshr_miss_latency::cpu3.inst      5514000                       # number of ReadReq MSHR miss cycles
system.l2.ReadReq_mshr_miss_latency::cpu3.data    434099000                       # number of ReadReq MSHR miss cycles
system.l2.ReadReq_mshr_miss_latency::total   1970342000                       # number of ReadReq MSHR miss cycles
system.l2.UpgradeReq_mshr_miss_latency::cpu0.data       362000                       # number of UpgradeReq MSHR miss cycles
system.l2.UpgradeReq_mshr_miss_latency::cpu1.data       120000                       # number of UpgradeReq MSHR miss cycles
system.l2.UpgradeReq_mshr_miss_latency::cpu2.data       120000                       # number of UpgradeReq MSHR miss cycles
system.l2.UpgradeReq_mshr_miss_latency::total       602000                       # number of UpgradeReq MSHR miss cycles
system.l2.SCUpgradeReq_mshr_miss_latency::cpu0.data       240000                       # number of SCUpgradeReq MSHR miss cycles
system.l2.SCUpgradeReq_mshr_miss_latency::cpu2.data        40000                       # number of SCUpgradeReq MSHR miss cycles
system.l2.SCUpgradeReq_mshr_miss_latency::cpu3.data       240000                       # number of SCUpgradeReq MSHR miss cycles
system.l2.SCUpgradeReq_mshr_miss_latency::total       520000                       # number of SCUpgradeReq MSHR miss cycles
system.l2.ReadExReq_mshr_miss_latency::cpu0.data    368981000                       # number of ReadExReq MSHR miss cycles
system.l2.ReadExReq_mshr_miss_latency::cpu1.data     45782000                       # number of ReadExReq MSHR miss cycles
system.l2.ReadExReq_mshr_miss_latency::cpu2.data     45469000                       # number of ReadExReq MSHR miss cycles
system.l2.ReadExReq_mshr_miss_latency::cpu3.data     46203000                       # number of ReadExReq MSHR miss cycles
system.l2.ReadExReq_mshr_miss_latency::total    506435000                       # number of ReadExReq MSHR miss cycles
system.l2.demand_mshr_miss_latency::cpu0.inst    146485000                       # number of demand (read+write) MSHR miss cycles
system.l2.demand_mshr_miss_latency::cpu0.data    909207000                       # number of demand (read+write) MSHR miss cycles
system.l2.demand_mshr_miss_latency::cpu1.inst     11238000                       # number of demand (read+write) MSHR miss cycles
system.l2.demand_mshr_miss_latency::cpu1.data    458536000                       # number of demand (read+write) MSHR miss cycles
system.l2.demand_mshr_miss_latency::cpu2.inst      2699000                       # number of demand (read+write) MSHR miss cycles
system.l2.demand_mshr_miss_latency::cpu2.data    462796000                       # number of demand (read+write) MSHR miss cycles
system.l2.demand_mshr_miss_latency::cpu3.inst      5514000                       # number of demand (read+write) MSHR miss cycles
system.l2.demand_mshr_miss_latency::cpu3.data    480302000                       # number of demand (read+write) MSHR miss cycles
system.l2.demand_mshr_miss_latency::total   2476777000                       # number of demand (read+write) MSHR miss cycles
system.l2.overall_mshr_miss_latency::cpu0.inst    146485000                       # number of overall MSHR miss cycles
system.l2.overall_mshr_miss_latency::cpu0.data    909207000                       # number of overall MSHR miss cycles
system.l2.overall_mshr_miss_latency::cpu1.inst     11238000                       # number of overall MSHR miss cycles
system.l2.overall_mshr_miss_latency::cpu1.data    458536000                       # number of overall MSHR miss cycles
system.l2.overall_mshr_miss_latency::cpu2.inst      2699000                       # number of overall MSHR miss cycles
system.l2.overall_mshr_miss_latency::cpu2.data    462796000                       # number of overall MSHR miss cycles
system.l2.overall_mshr_miss_latency::cpu3.inst      5514000                       # number of overall MSHR miss cycles
system.l2.overall_mshr_miss_latency::cpu3.data    480302000                       # number of overall MSHR miss cycles
system.l2.overall_mshr_miss_latency::total   2476777000                       # number of overall MSHR miss cycles
system.l2.ReadReq_mshr_miss_rate::cpu0.inst     0.011458                       # mshr miss rate for ReadReq accesses
system.l2.ReadReq_mshr_miss_rate::cpu0.data     0.149984                       # mshr miss rate for ReadReq accesses
system.l2.ReadReq_mshr_miss_rate::cpu1.inst     0.431433                       # mshr miss rate for ReadReq accesses
system.l2.ReadReq_mshr_miss_rate::cpu1.data     0.134061                       # mshr miss rate for ReadReq accesses
system.l2.ReadReq_mshr_miss_rate::cpu2.inst     0.100450                       # mshr miss rate for ReadReq accesses
system.l2.ReadReq_mshr_miss_rate::cpu2.data     0.137034                       # mshr miss rate for ReadReq accesses
system.l2.ReadReq_mshr_miss_rate::cpu3.inst     0.194051                       # mshr miss rate for ReadReq accesses
system.l2.ReadReq_mshr_miss_rate::cpu3.data     0.138536                       # mshr miss rate for ReadReq accesses
system.l2.ReadReq_mshr_miss_rate::total      0.076000                       # mshr miss rate for ReadReq accesses
system.l2.UpgradeReq_mshr_miss_rate::cpu0.data     0.051136                       # mshr miss rate for UpgradeReq accesses
system.l2.UpgradeReq_mshr_miss_rate::cpu1.data     0.017341                       # mshr miss rate for UpgradeReq accesses
system.l2.UpgradeReq_mshr_miss_rate::cpu2.data     0.021127                       # mshr miss rate for UpgradeReq accesses
system.l2.UpgradeReq_mshr_miss_rate::total     0.023772                       # mshr miss rate for UpgradeReq accesses
system.l2.SCUpgradeReq_mshr_miss_rate::cpu0.data     0.545455                       # mshr miss rate for SCUpgradeReq accesses
system.l2.SCUpgradeReq_mshr_miss_rate::cpu2.data     0.333333                       # mshr miss rate for SCUpgradeReq accesses
system.l2.SCUpgradeReq_mshr_miss_rate::cpu3.data     0.857143                       # mshr miss rate for SCUpgradeReq accesses
system.l2.SCUpgradeReq_mshr_miss_rate::total     0.619048                       # mshr miss rate for SCUpgradeReq accesses
system.l2.ReadExReq_mshr_miss_rate::cpu0.data     0.972961                       # mshr miss rate for ReadExReq accesses
system.l2.ReadExReq_mshr_miss_rate::cpu1.data     0.943886                       # mshr miss rate for ReadExReq accesses
system.l2.ReadExReq_mshr_miss_rate::cpu2.data     0.893939                       # mshr miss rate for ReadExReq accesses
system.l2.ReadExReq_mshr_miss_rate::cpu3.data     0.921457                       # mshr miss rate for ReadExReq accesses
system.l2.ReadExReq_mshr_miss_rate::total     0.957822                       # mshr miss rate for ReadExReq accesses
system.l2.demand_mshr_miss_rate::cpu0.inst     0.011458                       # mshr miss rate for demand accesses
system.l2.demand_mshr_miss_rate::cpu0.data     0.228658                       # mshr miss rate for demand accesses
system.l2.demand_mshr_miss_rate::cpu1.inst     0.431433                       # mshr miss rate for demand accesses
system.l2.demand_mshr_miss_rate::cpu1.data     0.146684                       # mshr miss rate for demand accesses
system.l2.demand_mshr_miss_rate::cpu2.inst     0.100450                       # mshr miss rate for demand accesses
system.l2.demand_mshr_miss_rate::cpu2.data     0.149547                       # mshr miss rate for demand accesses
system.l2.demand_mshr_miss_rate::cpu3.inst     0.194051                       # mshr miss rate for demand accesses
system.l2.demand_mshr_miss_rate::cpu3.data     0.150931                       # mshr miss rate for demand accesses
system.l2.demand_mshr_miss_rate::total       0.093699                       # mshr miss rate for demand accesses
system.l2.overall_mshr_miss_rate::cpu0.inst     0.011458                       # mshr miss rate for overall accesses
system.l2.overall_mshr_miss_rate::cpu0.data     0.228658                       # mshr miss rate for overall accesses
system.l2.overall_mshr_miss_rate::cpu1.inst     0.431433                       # mshr miss rate for overall accesses
system.l2.overall_mshr_miss_rate::cpu1.data     0.146684                       # mshr miss rate for overall accesses
system.l2.overall_mshr_miss_rate::cpu2.inst     0.100450                       # mshr miss rate for overall accesses
system.l2.overall_mshr_miss_rate::cpu2.data     0.149547                       # mshr miss rate for overall accesses
system.l2.overall_mshr_miss_rate::cpu3.inst     0.194051                       # mshr miss rate for overall accesses
system.l2.overall_mshr_miss_rate::cpu3.data     0.150931                       # mshr miss rate for overall accesses
system.l2.overall_mshr_miss_rate::total      0.093699                       # mshr miss rate for overall accesses
system.l2.ReadReq_avg_mshr_miss_latency::cpu0.inst 40034.162339                       # average ReadReq mshr miss latency
system.l2.ReadReq_avg_mshr_miss_latency::cpu0.data 40688.860435                       # average ReadReq mshr miss latency
system.l2.ReadReq_avg_mshr_miss_latency::cpu1.inst 40135.714286                       # average ReadReq mshr miss latency
system.l2.ReadReq_avg_mshr_miss_latency::cpu1.data 40830.349194                       # average ReadReq mshr miss latency
system.l2.ReadReq_avg_mshr_miss_latency::cpu2.inst 40283.582090                       # average ReadReq mshr miss latency
system.l2.ReadReq_avg_mshr_miss_latency::cpu2.data 40822.361342                       # average ReadReq mshr miss latency
system.l2.ReadReq_avg_mshr_miss_latency::cpu3.inst 40248.175182                       # average ReadReq mshr miss latency
system.l2.ReadReq_avg_mshr_miss_latency::cpu3.data 40814.121850                       # average ReadReq mshr miss latency
system.l2.ReadReq_avg_mshr_miss_latency::total 40719.641233                       # average ReadReq mshr miss latency
system.l2.UpgradeReq_avg_mshr_miss_latency::cpu0.data 40222.222222                       # average UpgradeReq mshr miss latency
system.l2.UpgradeReq_avg_mshr_miss_latency::cpu1.data        40000                       # average UpgradeReq mshr miss latency
system.l2.UpgradeReq_avg_mshr_miss_latency::cpu2.data        40000                       # average UpgradeReq mshr miss latency
system.l2.UpgradeReq_avg_mshr_miss_latency::total 40133.333333                       # average UpgradeReq mshr miss latency
system.l2.SCUpgradeReq_avg_mshr_miss_latency::cpu0.data        40000                       # average SCUpgradeReq mshr miss latency
system.l2.SCUpgradeReq_avg_mshr_miss_latency::cpu2.data        40000                       # average SCUpgradeReq mshr miss latency
system.l2.SCUpgradeReq_avg_mshr_miss_latency::cpu3.data        40000                       # average SCUpgradeReq mshr miss latency
system.l2.SCUpgradeReq_avg_mshr_miss_latency::total        40000                       # average SCUpgradeReq mshr miss latency
system.l2.ReadExReq_avg_mshr_miss_latency::cpu0.data 40529.547452                       # average ReadExReq mshr miss latency
system.l2.ReadExReq_avg_mshr_miss_latency::cpu1.data 40622.892635                       # average ReadExReq mshr miss latency
system.l2.ReadExReq_avg_mshr_miss_latency::cpu2.data 40561.106155                       # average ReadExReq mshr miss latency
system.l2.ReadExReq_avg_mshr_miss_latency::cpu3.data 40600.175747                       # average ReadExReq mshr miss latency
system.l2.ReadExReq_avg_mshr_miss_latency::total 40547.237790                       # average ReadExReq mshr miss latency
system.l2.demand_avg_mshr_miss_latency::cpu0.inst 40034.162339                       # average overall mshr miss latency
system.l2.demand_avg_mshr_miss_latency::cpu0.data 40624.056119                       # average overall mshr miss latency
system.l2.demand_avg_mshr_miss_latency::cpu1.inst 40135.714286                       # average overall mshr miss latency
system.l2.demand_avg_mshr_miss_latency::cpu1.data 40809.540762                       # average overall mshr miss latency
system.l2.demand_avg_mshr_miss_latency::cpu2.inst 40283.582090                       # average overall mshr miss latency
system.l2.demand_avg_mshr_miss_latency::cpu2.data 40796.544429                       # average overall mshr miss latency
system.l2.demand_avg_mshr_miss_latency::cpu3.inst 40248.175182                       # average overall mshr miss latency
system.l2.demand_avg_mshr_miss_latency::cpu3.data 40793.443180                       # average overall mshr miss latency
system.l2.demand_avg_mshr_miss_latency::total 40684.270180                       # average overall mshr miss latency
system.l2.overall_avg_mshr_miss_latency::cpu0.inst 40034.162339                       # average overall mshr miss latency
system.l2.overall_avg_mshr_miss_latency::cpu0.data 40624.056119                       # average overall mshr miss latency
system.l2.overall_avg_mshr_miss_latency::cpu1.inst 40135.714286                       # average overall mshr miss latency
system.l2.overall_avg_mshr_miss_latency::cpu1.data 40809.540762                       # average overall mshr miss latency
system.l2.overall_avg_mshr_miss_latency::cpu2.inst 40283.582090                       # average overall mshr miss latency
system.l2.overall_avg_mshr_miss_latency::cpu2.data 40796.544429                       # average overall mshr miss latency
system.l2.overall_avg_mshr_miss_latency::cpu3.inst 40248.175182                       # average overall mshr miss latency
system.l2.overall_avg_mshr_miss_latency::cpu3.data 40793.443180                       # average overall mshr miss latency
system.l2.overall_avg_mshr_miss_latency::total 40684.270180                       # average overall mshr miss latency
system.l2.no_allocate_misses                        0                       # Number of misses that were no-allocate
system.cpu0.dtb.fetch_hits                          0                       # ITB hits
system.cpu0.dtb.fetch_misses                        0                       # ITB misses
system.cpu0.dtb.fetch_acv                           0                       # ITB acv
system.cpu0.dtb.fetch_accesses                      0                       # ITB accesses
system.cpu0.dtb.read_hits                    36905002                       # DTB read hits
system.cpu0.dtb.read_misses                     22227                       # DTB read misses
system.cpu0.dtb.read_acv                            4                       # DTB read access violations
system.cpu0.dtb.read_accesses                36927229                       # DTB read accesses
system.cpu0.dtb.write_hits                   14907323                       # DTB write hits
system.cpu0.dtb.write_misses                      704                       # DTB write misses
system.cpu0.dtb.write_acv                           0                       # DTB write access violations
system.cpu0.dtb.write_accesses               14908027                       # DTB write accesses
system.cpu0.dtb.data_hits                    51812325                       # DTB hits
system.cpu0.dtb.data_misses                     22931                       # DTB misses
system.cpu0.dtb.data_acv                            4                       # DTB access violations
system.cpu0.dtb.data_accesses                51835256                       # DTB accesses
system.cpu0.itb.fetch_hits                   26786929                       # ITB hits
system.cpu0.itb.fetch_misses                      335                       # ITB misses
system.cpu0.itb.fetch_acv                           0                       # ITB acv
system.cpu0.itb.fetch_accesses               26787264                       # ITB accesses
system.cpu0.itb.read_hits                           0                       # DTB read hits
system.cpu0.itb.read_misses                         0                       # DTB read misses
system.cpu0.itb.read_acv                            0                       # DTB read access violations
system.cpu0.itb.read_accesses                       0                       # DTB read accesses
system.cpu0.itb.write_hits                          0                       # DTB write hits
system.cpu0.itb.write_misses                        0                       # DTB write misses
system.cpu0.itb.write_acv                           0                       # DTB write access violations
system.cpu0.itb.write_accesses                      0                       # DTB write accesses
system.cpu0.itb.data_hits                           0                       # DTB hits
system.cpu0.itb.data_misses                         0                       # DTB misses
system.cpu0.itb.data_acv                            0                       # DTB access violations
system.cpu0.itb.data_accesses                       0                       # DTB accesses
system.cpu0.numCycles                        63706595                       # number of cpu cycles simulated
system.cpu0.numWorkItemsStarted                     0                       # number of work items this cpu started
system.cpu0.numWorkItemsCompleted                   0                       # number of work items this cpu completed
system.cpu0.BPredUnit.lookups                27630774                       # Number of BP lookups
system.cpu0.BPredUnit.condPredicted          23775319                       # Number of conditional branches predicted
system.cpu0.BPredUnit.condIncorrect            696378                       # Number of conditional branches incorrect
system.cpu0.BPredUnit.BTBLookups             19806854                       # Number of BTB lookups
system.cpu0.BPredUnit.BTBHits                19318393                       # Number of BTB hits
system.cpu0.BPredUnit.BTBCorrect                    0                       # Number of correct BTB predictions (this stat may not work properly.
system.cpu0.BPredUnit.usedRAS                 1069083                       # Number of times the RAS was used to get a target.
system.cpu0.BPredUnit.RASInCorrect               1083                       # Number of incorrect RAS predictions.
system.cpu0.fetch.icacheStallCycles           4621556                       # Number of cycles fetch is stalled on an Icache miss
system.cpu0.fetch.Insts                     194781812                       # Number of instructions fetch has processed
system.cpu0.fetch.Branches                   27630774                       # Number of branches that fetch encountered
system.cpu0.fetch.predictedBranches          20387476                       # Number of branches that fetch has predicted taken
system.cpu0.fetch.Cycles                     36268936                       # Number of cycles fetch has run and was not squashing or blocked
system.cpu0.fetch.SquashCycles                3195102                       # Number of cycles fetch has spent squashing
system.cpu0.fetch.BlockedCycles              20165576                       # Number of cycles fetch has spent blocked
system.cpu0.fetch.MiscStallCycles                 142                       # Number of cycles fetch has spent waiting on interrupts, or bad addresses, or out of MSHRs
system.cpu0.fetch.PendingTrapStallCycles         5135                       # Number of stall cycles due to pending traps
system.cpu0.fetch.CacheLines                 26786929                       # Number of cache lines fetched
system.cpu0.fetch.IcacheSquashes                32120                       # Number of outstanding Icache misses that were squashed
system.cpu0.fetch.rateDist::samples          63555311                       # Number of instructions fetched each cycle (Total)
system.cpu0.fetch.rateDist::mean             3.064761                       # Number of instructions fetched each cycle (Total)
system.cpu0.fetch.rateDist::stdev            3.159313                       # Number of instructions fetched each cycle (Total)
system.cpu0.fetch.rateDist::underflows              0      0.00%      0.00% # Number of instructions fetched each cycle (Total)
system.cpu0.fetch.rateDist::0                27286375     42.93%     42.93% # Number of instructions fetched each cycle (Total)
system.cpu0.fetch.rateDist::1                 2991706      4.71%     47.64% # Number of instructions fetched each cycle (Total)
system.cpu0.fetch.rateDist::2                 1215514      1.91%     49.55% # Number of instructions fetched each cycle (Total)
system.cpu0.fetch.rateDist::3                 1433479      2.26%     51.81% # Number of instructions fetched each cycle (Total)
system.cpu0.fetch.rateDist::4                 8493655     13.36%     65.17% # Number of instructions fetched each cycle (Total)
system.cpu0.fetch.rateDist::5                 7601481     11.96%     77.13% # Number of instructions fetched each cycle (Total)
system.cpu0.fetch.rateDist::6                 1167759      1.84%     78.97% # Number of instructions fetched each cycle (Total)
system.cpu0.fetch.rateDist::7                  852674      1.34%     80.31% # Number of instructions fetched each cycle (Total)
system.cpu0.fetch.rateDist::8                12512668     19.69%    100.00% # Number of instructions fetched each cycle (Total)
system.cpu0.fetch.rateDist::overflows               0      0.00%    100.00% # Number of instructions fetched each cycle (Total)
system.cpu0.fetch.rateDist::min_value               0                       # Number of instructions fetched each cycle (Total)
system.cpu0.fetch.rateDist::max_value               8                       # Number of instructions fetched each cycle (Total)
system.cpu0.fetch.rateDist::total            63555311                       # Number of instructions fetched each cycle (Total)
system.cpu0.fetch.branchRate                 0.433719                       # Number of branch fetches per cycle
system.cpu0.fetch.rate                       3.057483                       # Number of inst fetches per cycle
system.cpu0.decode.IdleCycles                 8183200                       # Number of cycles decode is idle
system.cpu0.decode.BlockedCycles             17260858                       # Number of cycles decode is blocked
system.cpu0.decode.RunCycles                 32774329                       # Number of cycles decode is running
system.cpu0.decode.UnblockCycles              2845700                       # Number of cycles decode is unblocking
system.cpu0.decode.SquashCycles               2491224                       # Number of cycles decode is squashing
system.cpu0.decode.BranchResolved             2543540                       # Number of times decode resolved a branch
system.cpu0.decode.BranchMispred                 2849                       # Number of times decode detected a branch misprediction
system.cpu0.decode.DecodedInsts             191622314                       # Number of instructions handled by decode
system.cpu0.decode.SquashedInsts                13994                       # Number of squashed instructions handled by decode
system.cpu0.rename.SquashCycles               2491224                       # Number of cycles rename is squashing
system.cpu0.rename.IdleCycles                11504883                       # Number of cycles rename is idle
system.cpu0.rename.BlockCycles               10045014                       # Number of cycles rename is blocking
system.cpu0.rename.serializeStallCycles        433664                       # count of cycles rename stalled for serializing inst
system.cpu0.rename.RunCycles                 32219816                       # Number of cycles rename is running
system.cpu0.rename.UnblockCycles              6860710                       # Number of cycles rename is unblocking
system.cpu0.rename.RenamedInsts             188482202                       # Number of instructions processed by rename
system.cpu0.rename.ROBFullEvents                  488                       # Number of times rename has blocked due to ROB full
system.cpu0.rename.IQFullEvents                 69423                       # Number of times rename has blocked due to IQ full
system.cpu0.rename.LSQFullEvents              4640530                       # Number of times rename has blocked due to LSQ full
system.cpu0.rename.FullRegisterEvents              21                       # Number of times there has been no free registers
system.cpu0.rename.RenamedOperands          140731117                       # Number of destination operands rename has renamed
system.cpu0.rename.RenameLookups            256424728                       # Number of register rename lookups that rename has made
system.cpu0.rename.int_rename_lookups        94059945                       # Number of integer rename lookups
system.cpu0.rename.fp_rename_lookups        162364783                       # Number of floating rename lookups
system.cpu0.rename.CommittedMaps            123878636                       # Number of HB maps that are committed
system.cpu0.rename.UndoneMaps                16852481                       # Number of HB maps that are undone due to squashing
system.cpu0.rename.serializingInsts             39687                       # count of serializing insts renamed
system.cpu0.rename.tempSerializingInsts         14847                       # count of temporary serializing insts renamed
system.cpu0.rename.skidInsts                 25127621                       # count of insts added to the skid buffer
system.cpu0.memDep0.insertedLoads            37340143                       # Number of loads inserted to the mem dependence unit.
system.cpu0.memDep0.insertedStores           15363018                       # Number of stores inserted to the mem dependence unit.
system.cpu0.memDep0.conflictingLoads          2504885                       # Number of conflicting loads.
system.cpu0.memDep0.conflictingStores         1309159                       # Number of conflicting stores.
system.cpu0.iq.iqInstsAdded                 176171603                       # Number of instructions added to the IQ (excludes non-spec)
system.cpu0.iq.iqNonSpecInstsAdded              26991                       # Number of non-speculative instructions added to the IQ
system.cpu0.iq.iqInstsIssued                170565817                       # Number of instructions issued
system.cpu0.iq.iqSquashedInstsIssued           468727                       # Number of squashed instructions issued
system.cpu0.iq.iqSquashedInstsExamined       15830645                       # Number of squashed instructions iterated over during squash; mainly for profiling
system.cpu0.iq.iqSquashedOperandsExamined     10321295                       # Number of squashed operands that are examined and possibly removed from graph
system.cpu0.iq.iqSquashedNonSpecRemoved           758                       # Number of squashed non-spec instructions that were removed
system.cpu0.iq.issued_per_cycle::samples     63555311                       # Number of insts issued each cycle
system.cpu0.iq.issued_per_cycle::mean        2.683738                       # Number of insts issued each cycle
system.cpu0.iq.issued_per_cycle::stdev       2.083398                       # Number of insts issued each cycle
system.cpu0.iq.issued_per_cycle::underflows            0      0.00%      0.00% # Number of insts issued each cycle
system.cpu0.iq.issued_per_cycle::0           15494728     24.38%     24.38% # Number of insts issued each cycle
system.cpu0.iq.issued_per_cycle::1            6575873     10.35%     34.73% # Number of insts issued each cycle
system.cpu0.iq.issued_per_cycle::2            6238448      9.82%     44.54% # Number of insts issued each cycle
system.cpu0.iq.issued_per_cycle::3           11995905     18.87%     63.42% # Number of insts issued each cycle
system.cpu0.iq.issued_per_cycle::4            9047030     14.23%     77.65% # Number of insts issued each cycle
system.cpu0.iq.issued_per_cycle::5            7108379     11.18%     88.84% # Number of insts issued each cycle
system.cpu0.iq.issued_per_cycle::6            6025637      9.48%     98.32% # Number of insts issued each cycle
system.cpu0.iq.issued_per_cycle::7             912992      1.44%     99.75% # Number of insts issued each cycle
system.cpu0.iq.issued_per_cycle::8             156319      0.25%    100.00% # Number of insts issued each cycle
system.cpu0.iq.issued_per_cycle::overflows            0      0.00%    100.00% # Number of insts issued each cycle
system.cpu0.iq.issued_per_cycle::min_value            0                       # Number of insts issued each cycle
system.cpu0.iq.issued_per_cycle::max_value            8                       # Number of insts issued each cycle
system.cpu0.iq.issued_per_cycle::total       63555311                       # Number of insts issued each cycle
system.cpu0.iq.fu_full::No_OpClass                  0      0.00%      0.00% # attempts to use FU when none available
system.cpu0.iq.fu_full::IntAlu                  84573      2.83%      2.83% # attempts to use FU when none available
system.cpu0.iq.fu_full::IntMult                     0      0.00%      2.83% # attempts to use FU when none available
system.cpu0.iq.fu_full::IntDiv                      0      0.00%      2.83% # attempts to use FU when none available
system.cpu0.iq.fu_full::FloatAdd               218234      7.31%     10.14% # attempts to use FU when none available
system.cpu0.iq.fu_full::FloatCmp                    3      0.00%     10.14% # attempts to use FU when none available
system.cpu0.iq.fu_full::FloatCvt                    0      0.00%     10.14% # attempts to use FU when none available
system.cpu0.iq.fu_full::FloatMult             1253250     41.95%     52.09% # attempts to use FU when none available
system.cpu0.iq.fu_full::FloatDiv               185804      6.22%     58.31% # attempts to use FU when none available
system.cpu0.iq.fu_full::FloatSqrt                   0      0.00%     58.31% # attempts to use FU when none available
system.cpu0.iq.fu_full::SimdAdd                     0      0.00%     58.31% # attempts to use FU when none available
system.cpu0.iq.fu_full::SimdAddAcc                  0      0.00%     58.31% # attempts to use FU when none available
system.cpu0.iq.fu_full::SimdAlu                     0      0.00%     58.31% # attempts to use FU when none available
system.cpu0.iq.fu_full::SimdCmp                     0      0.00%     58.31% # attempts to use FU when none available
system.cpu0.iq.fu_full::SimdCvt                     0      0.00%     58.31% # attempts to use FU when none available
system.cpu0.iq.fu_full::SimdMisc                    0      0.00%     58.31% # attempts to use FU when none available
system.cpu0.iq.fu_full::SimdMult                    0      0.00%     58.31% # attempts to use FU when none available
system.cpu0.iq.fu_full::SimdMultAcc                 0      0.00%     58.31% # attempts to use FU when none available
system.cpu0.iq.fu_full::SimdShift                   0      0.00%     58.31% # attempts to use FU when none available
system.cpu0.iq.fu_full::SimdShiftAcc                0      0.00%     58.31% # attempts to use FU when none available
system.cpu0.iq.fu_full::SimdSqrt                    0      0.00%     58.31% # attempts to use FU when none available
system.cpu0.iq.fu_full::SimdFloatAdd                0      0.00%     58.31% # attempts to use FU when none available
system.cpu0.iq.fu_full::SimdFloatAlu                0      0.00%     58.31% # attempts to use FU when none available
system.cpu0.iq.fu_full::SimdFloatCmp                0      0.00%     58.31% # attempts to use FU when none available
system.cpu0.iq.fu_full::SimdFloatCvt                0      0.00%     58.31% # attempts to use FU when none available
system.cpu0.iq.fu_full::SimdFloatDiv                0      0.00%     58.31% # attempts to use FU when none available
system.cpu0.iq.fu_full::SimdFloatMisc               0      0.00%     58.31% # attempts to use FU when none available
system.cpu0.iq.fu_full::SimdFloatMult               0      0.00%     58.31% # attempts to use FU when none available
system.cpu0.iq.fu_full::SimdFloatMultAcc            0      0.00%     58.31% # attempts to use FU when none available
system.cpu0.iq.fu_full::SimdFloatSqrt               0      0.00%     58.31% # attempts to use FU when none available
system.cpu0.iq.fu_full::MemRead               1134949     37.99%     96.30% # attempts to use FU when none available
system.cpu0.iq.fu_full::MemWrite               110457      3.70%    100.00% # attempts to use FU when none available
system.cpu0.iq.fu_full::IprAccess                   0      0.00%    100.00% # attempts to use FU when none available
system.cpu0.iq.fu_full::InstPrefetch                0      0.00%    100.00% # attempts to use FU when none available
system.cpu0.iq.FU_type_0::No_OpClass                0      0.00%      0.00% # Type of FU issued
system.cpu0.iq.FU_type_0::IntAlu             64034104     37.54%     37.54% # Type of FU issued
system.cpu0.iq.FU_type_0::IntMult                9331      0.01%     37.55% # Type of FU issued
system.cpu0.iq.FU_type_0::IntDiv                    0      0.00%     37.55% # Type of FU issued
[...]
system.cpu3.icache.overall_mshr_miss_latency::total     17730000                       # number of overall MSHR miss cycles
system.cpu3.icache.ReadReq_mshr_miss_rate::cpu3.inst     0.000030                       # mshr miss rate for ReadReq accesses
system.cpu3.icache.ReadReq_mshr_miss_rate::total     0.000030                       # mshr miss rate for ReadReq accesses
system.cpu3.icache.demand_mshr_miss_rate::cpu3.inst     0.000030                       # mshr miss rate for demand accesses
system.cpu3.icache.demand_mshr_miss_rate::total     0.000030                       # mshr miss rate for demand accesses
system.cpu3.icache.overall_mshr_miss_rate::cpu3.inst     0.000030                       # mshr miss rate for overall accesses
system.cpu3.icache.overall_mshr_miss_rate::total     0.000030                       # mshr miss rate for overall accesses
system.cpu3.icache.ReadReq_avg_mshr_miss_latency::cpu3.inst 25113.314448                       # average ReadReq mshr miss latency
system.cpu3.icache.ReadReq_avg_mshr_miss_latency::total 25113.314448                       # average ReadReq mshr miss latency
system.cpu3.icache.demand_avg_mshr_miss_latency::cpu3.inst 25113.314448                       # average overall mshr miss latency
system.cpu3.icache.demand_avg_mshr_miss_latency::total 25113.314448                       # average overall mshr miss latency
system.cpu3.icache.overall_avg_mshr_miss_latency::cpu3.inst 25113.314448                       # average overall mshr miss latency
system.cpu3.icache.overall_avg_mshr_miss_latency::total 25113.314448                       # average overall mshr miss latency
system.cpu3.icache.no_allocate_misses               0                       # Number of misses that were no-allocate
system.cpu3.dcache.replacements                 85329                       # number of replacements
system.cpu3.dcache.tagsinuse               416.121252                       # Cycle average of tags in use
system.cpu3.dcache.total_refs                42398557                       # Total number of references to valid blocks.
system.cpu3.dcache.sampled_refs                 85830                       # Sample count of references to valid blocks.
system.cpu3.dcache.avg_refs                493.982955                       # Average number of references to valid blocks.
system.cpu3.dcache.warmup_cycle                     0                       # Cycle when the warmup percentage was hit.
system.cpu3.dcache.occ_blocks::cpu3.data   416.121252                       # Average occupied blocks per requestor
system.cpu3.dcache.occ_percent::cpu3.data     0.812737                       # Average percentage of cache occupancy
system.cpu3.dcache.occ_percent::total        0.812737                       # Average percentage of cache occupancy
system.cpu3.dcache.ReadReq_hits::cpu3.data     29935291                       # number of ReadReq hits
system.cpu3.dcache.ReadReq_hits::total       29935291                       # number of ReadReq hits
system.cpu3.dcache.WriteReq_hits::cpu3.data     12462820                       # number of WriteReq hits
system.cpu3.dcache.WriteReq_hits::total      12462820                       # number of WriteReq hits
system.cpu3.dcache.LoadLockedReq_hits::cpu3.data           96                       # number of LoadLockedReq hits
system.cpu3.dcache.LoadLockedReq_hits::total           96                       # number of LoadLockedReq hits
system.cpu3.dcache.StoreCondReq_hits::cpu3.data           48                       # number of StoreCondReq hits
system.cpu3.dcache.StoreCondReq_hits::total           48                       # number of StoreCondReq hits
system.cpu3.dcache.demand_hits::cpu3.data     42398111                       # number of demand (read+write) hits
system.cpu3.dcache.demand_hits::total        42398111                       # number of demand (read+write) hits
system.cpu3.dcache.overall_hits::cpu3.data     42398111                       # number of overall hits
system.cpu3.dcache.overall_hits::total       42398111                       # number of overall hits
system.cpu3.dcache.ReadReq_misses::cpu3.data       241739                       # number of ReadReq misses
system.cpu3.dcache.ReadReq_misses::total       241739                       # number of ReadReq misses
system.cpu3.dcache.WriteReq_misses::cpu3.data         5754                       # number of WriteReq misses
system.cpu3.dcache.WriteReq_misses::total         5754                       # number of WriteReq misses
system.cpu3.dcache.LoadLockedReq_misses::cpu3.data           29                       # number of LoadLockedReq misses
system.cpu3.dcache.LoadLockedReq_misses::total           29                       # number of LoadLockedReq misses
system.cpu3.dcache.StoreCondReq_misses::cpu3.data           61                       # number of StoreCondReq misses
system.cpu3.dcache.StoreCondReq_misses::total           61                       # number of StoreCondReq misses
system.cpu3.dcache.demand_misses::cpu3.data       247493                       # number of demand (read+write) misses
system.cpu3.dcache.demand_misses::total        247493                       # number of demand (read+write) misses
system.cpu3.dcache.overall_misses::cpu3.data       247493                       # number of overall misses
system.cpu3.dcache.overall_misses::total       247493                       # number of overall misses
system.cpu3.dcache.ReadReq_miss_latency::cpu3.data   3812077000                       # number of ReadReq miss cycles
system.cpu3.dcache.ReadReq_miss_latency::total   3812077000                       # number of ReadReq miss cycles
system.cpu3.dcache.WriteReq_miss_latency::cpu3.data    293131997                       # number of WriteReq miss cycles
system.cpu3.dcache.WriteReq_miss_latency::total    293131997                       # number of WriteReq miss cycles
system.cpu3.dcache.LoadLockedReq_miss_latency::cpu3.data       214000                       # number of LoadLockedReq miss cycles
system.cpu3.dcache.LoadLockedReq_miss_latency::total       214000                       # number of LoadLockedReq miss cycles
system.cpu3.dcache.StoreCondReq_miss_latency::cpu3.data       645000                       # number of StoreCondReq miss cycles
system.cpu3.dcache.StoreCondReq_miss_latency::total       645000                       # number of StoreCondReq miss cycles
system.cpu3.dcache.demand_miss_latency::cpu3.data   4105208997                       # number of demand (read+write) miss cycles
system.cpu3.dcache.demand_miss_latency::total   4105208997                       # number of demand (read+write) miss cycles
system.cpu3.dcache.overall_miss_latency::cpu3.data   4105208997                       # number of overall miss cycles
system.cpu3.dcache.overall_miss_latency::total   4105208997                       # number of overall miss cycles
system.cpu3.dcache.ReadReq_accesses::cpu3.data     30177030                       # number of ReadReq accesses(hits+misses)
system.cpu3.dcache.ReadReq_accesses::total     30177030                       # number of ReadReq accesses(hits+misses)
system.cpu3.dcache.WriteReq_accesses::cpu3.data     12468574                       # number of WriteReq accesses(hits+misses)
system.cpu3.dcache.WriteReq_accesses::total     12468574                       # number of WriteReq accesses(hits+misses)
system.cpu3.dcache.LoadLockedReq_accesses::cpu3.data          125                       # number of LoadLockedReq accesses(hits+misses)
system.cpu3.dcache.LoadLockedReq_accesses::total          125                       # number of LoadLockedReq accesses(hits+misses)
system.cpu3.dcache.StoreCondReq_accesses::cpu3.data          109                       # number of StoreCondReq accesses(hits+misses)
system.cpu3.dcache.StoreCondReq_accesses::total          109                       # number of StoreCondReq accesses(hits+misses)
system.cpu3.dcache.demand_accesses::cpu3.data     42645604                       # number of demand (read+write) accesses
system.cpu3.dcache.demand_accesses::total     42645604                       # number of demand (read+write) accesses
system.cpu3.dcache.overall_accesses::cpu3.data     42645604                       # number of overall (read+write) accesses
system.cpu3.dcache.overall_accesses::total     42645604                       # number of overall (read+write) accesses
system.cpu3.dcache.ReadReq_miss_rate::cpu3.data     0.008011                       # miss rate for ReadReq accesses
system.cpu3.dcache.ReadReq_miss_rate::total     0.008011                       # miss rate for ReadReq accesses
system.cpu3.dcache.WriteReq_miss_rate::cpu3.data     0.000461                       # miss rate for WriteReq accesses
system.cpu3.dcache.WriteReq_miss_rate::total     0.000461                       # miss rate for WriteReq accesses
system.cpu3.dcache.LoadLockedReq_miss_rate::cpu3.data     0.232000                       # miss rate for LoadLockedReq accesses
system.cpu3.dcache.LoadLockedReq_miss_rate::total     0.232000                       # miss rate for LoadLockedReq accesses
system.cpu3.dcache.StoreCondReq_miss_rate::cpu3.data     0.559633                       # miss rate for StoreCondReq accesses
system.cpu3.dcache.StoreCondReq_miss_rate::total     0.559633                       # miss rate for StoreCondReq accesses
system.cpu3.dcache.demand_miss_rate::cpu3.data     0.005803                       # miss rate for demand accesses
system.cpu3.dcache.demand_miss_rate::total     0.005803                       # miss rate for demand accesses
system.cpu3.dcache.overall_miss_rate::cpu3.data     0.005803                       # miss rate for overall accesses
system.cpu3.dcache.overall_miss_rate::total     0.005803                       # miss rate for overall accesses
system.cpu3.dcache.ReadReq_avg_miss_latency::cpu3.data 15769.391782                       # average ReadReq miss latency
system.cpu3.dcache.ReadReq_avg_miss_latency::total 15769.391782                       # average ReadReq miss latency
system.cpu3.dcache.WriteReq_avg_miss_latency::cpu3.data 50944.038408                       # average WriteReq miss latency
system.cpu3.dcache.WriteReq_avg_miss_latency::total 50944.038408                       # average WriteReq miss latency
system.cpu3.dcache.LoadLockedReq_avg_miss_latency::cpu3.data  7379.310345                       # average LoadLockedReq miss latency
system.cpu3.dcache.LoadLockedReq_avg_miss_latency::total  7379.310345                       # average LoadLockedReq miss latency
system.cpu3.dcache.StoreCondReq_avg_miss_latency::cpu3.data 10573.770492                       # average StoreCondReq miss latency
system.cpu3.dcache.StoreCondReq_avg_miss_latency::total 10573.770492                       # average StoreCondReq miss latency
system.cpu3.dcache.demand_avg_miss_latency::cpu3.data 16587.172150                       # average overall miss latency
system.cpu3.dcache.demand_avg_miss_latency::total 16587.172150                       # average overall miss latency
system.cpu3.dcache.overall_avg_miss_latency::cpu3.data 16587.172150                       # average overall miss latency
system.cpu3.dcache.overall_avg_miss_latency::total 16587.172150                       # average overall miss latency
system.cpu3.dcache.blocked_cycles::no_mshrs            0                       # number of cycles access was blocked
system.cpu3.dcache.blocked_cycles::no_targets     71483000                       # number of cycles access was blocked
system.cpu3.dcache.blocked::no_mshrs                0                       # number of cycles access was blocked
system.cpu3.dcache.blocked::no_targets          10296                       # number of cycles access was blocked
system.cpu3.dcache.avg_blocked_cycles::no_mshrs          nan                       # average number of cycles each access was blocked
system.cpu3.dcache.avg_blocked_cycles::no_targets  6942.793318                       # average number of cycles each access was blocked
system.cpu3.dcache.fast_writes                      0                       # number of fast writes performed
system.cpu3.dcache.cache_copies                     0                       # number of cache copies performed
system.cpu3.dcache.writebacks::writebacks        22024                       # number of writebacks
system.cpu3.dcache.writebacks::total            22024                       # number of writebacks
system.cpu3.dcache.ReadReq_mshr_hits::cpu3.data       156897                       # number of ReadReq MSHR hits
system.cpu3.dcache.ReadReq_mshr_hits::total       156897                       # number of ReadReq MSHR hits
system.cpu3.dcache.WriteReq_mshr_hits::cpu3.data         4289                       # number of WriteReq MSHR hits
system.cpu3.dcache.WriteReq_mshr_hits::total         4289                       # number of WriteReq MSHR hits
system.cpu3.dcache.LoadLockedReq_mshr_hits::cpu3.data            1                       # number of LoadLockedReq MSHR hits
system.cpu3.dcache.LoadLockedReq_mshr_hits::total            1                       # number of LoadLockedReq MSHR hits
system.cpu3.dcache.demand_mshr_hits::cpu3.data       161186                       # number of demand (read+write) MSHR hits
system.cpu3.dcache.demand_mshr_hits::total       161186                       # number of demand (read+write) MSHR hits
system.cpu3.dcache.overall_mshr_hits::cpu3.data       161186                       # number of overall MSHR hits
system.cpu3.dcache.overall_mshr_hits::total       161186                       # number of overall MSHR hits
system.cpu3.dcache.ReadReq_mshr_misses::cpu3.data        84842                       # number of ReadReq MSHR misses
system.cpu3.dcache.ReadReq_mshr_misses::total        84842                       # number of ReadReq MSHR misses
system.cpu3.dcache.WriteReq_mshr_misses::cpu3.data         1465                       # number of WriteReq MSHR misses
system.cpu3.dcache.WriteReq_mshr_misses::total         1465                       # number of WriteReq MSHR misses
system.cpu3.dcache.LoadLockedReq_mshr_misses::cpu3.data           28                       # number of LoadLockedReq MSHR misses
system.cpu3.dcache.LoadLockedReq_mshr_misses::total           28                       # number of LoadLockedReq MSHR misses
system.cpu3.dcache.StoreCondReq_mshr_misses::cpu3.data           61                       # number of StoreCondReq MSHR misses
system.cpu3.dcache.StoreCondReq_mshr_misses::total           61                       # number of StoreCondReq MSHR misses
system.cpu3.dcache.demand_mshr_misses::cpu3.data        86307                       # number of demand (read+write) MSHR misses
system.cpu3.dcache.demand_mshr_misses::total        86307                       # number of demand (read+write) MSHR misses
system.cpu3.dcache.overall_mshr_misses::cpu3.data        86307                       # number of overall MSHR misses
system.cpu3.dcache.overall_mshr_misses::total        86307                       # number of overall MSHR misses
system.cpu3.dcache.ReadReq_mshr_miss_latency::cpu3.data   1452183000                       # number of ReadReq MSHR miss cycles
system.cpu3.dcache.ReadReq_mshr_miss_latency::total   1452183000                       # number of ReadReq MSHR miss cycles
system.cpu3.dcache.WriteReq_mshr_miss_latency::cpu3.data     67065998                       # number of WriteReq MSHR miss cycles
system.cpu3.dcache.WriteReq_mshr_miss_latency::total     67065998                       # number of WriteReq MSHR miss cycles
system.cpu3.dcache.LoadLockedReq_mshr_miss_latency::cpu3.data       115000                       # number of LoadLockedReq MSHR miss cycles
system.cpu3.dcache.LoadLockedReq_mshr_miss_latency::total       115000                       # number of LoadLockedReq MSHR miss cycles
system.cpu3.dcache.StoreCondReq_mshr_miss_latency::cpu3.data       462000                       # number of StoreCondReq MSHR miss cycles
system.cpu3.dcache.StoreCondReq_mshr_miss_latency::total       462000                       # number of StoreCondReq MSHR miss cycles
system.cpu3.dcache.demand_mshr_miss_latency::cpu3.data   1519248998                       # number of demand (read+write) MSHR miss cycles
system.cpu3.dcache.demand_mshr_miss_latency::total   1519248998                       # number of demand (read+write) MSHR miss cycles
system.cpu3.dcache.overall_mshr_miss_latency::cpu3.data   1519248998                       # number of overall MSHR miss cycles
system.cpu3.dcache.overall_mshr_miss_latency::total   1519248998                       # number of overall MSHR miss cycles
system.cpu3.dcache.ReadReq_mshr_miss_rate::cpu3.data     0.002811                       # mshr miss rate for ReadReq accesses
system.cpu3.dcache.ReadReq_mshr_miss_rate::total     0.002811                       # mshr miss rate for ReadReq accesses
system.cpu3.dcache.WriteReq_mshr_miss_rate::cpu3.data     0.000117                       # mshr miss rate for WriteReq accesses
system.cpu3.dcache.WriteReq_mshr_miss_rate::total     0.000117                       # mshr miss rate for WriteReq accesses
system.cpu3.dcache.LoadLockedReq_mshr_miss_rate::cpu3.data     0.224000                       # mshr miss rate for LoadLockedReq accesses
system.cpu3.dcache.LoadLockedReq_mshr_miss_rate::total     0.224000                       # mshr miss rate for LoadLockedReq accesses
system.cpu3.dcache.StoreCondReq_mshr_miss_rate::cpu3.data     0.559633                       # mshr miss rate for StoreCondReq accesses
system.cpu3.dcache.StoreCondReq_mshr_miss_rate::total     0.559633                       # mshr miss rate for StoreCondReq accesses
system.cpu3.dcache.demand_mshr_miss_rate::cpu3.data     0.002024                       # mshr miss rate for demand accesses
system.cpu3.dcache.demand_mshr_miss_rate::total     0.002024                       # mshr miss rate for demand accesses
system.cpu3.dcache.overall_mshr_miss_rate::cpu3.data     0.002024                       # mshr miss rate for overall accesses
system.cpu3.dcache.overall_mshr_miss_rate::total     0.002024                       # mshr miss rate for overall accesses
system.cpu3.dcache.ReadReq_avg_mshr_miss_latency::cpu3.data 17116.322105                       # average ReadReq mshr miss latency
system.cpu3.dcache.ReadReq_avg_mshr_miss_latency::total 17116.322105                       # average ReadReq mshr miss latency
system.cpu3.dcache.WriteReq_avg_mshr_miss_latency::cpu3.data 45778.838225                       # average WriteReq mshr miss latency
system.cpu3.dcache.WriteReq_avg_mshr_miss_latency::total 45778.838225                       # average WriteReq mshr miss latency
system.cpu3.dcache.LoadLockedReq_avg_mshr_miss_latency::cpu3.data  4107.142857                       # average LoadLockedReq mshr miss latency
system.cpu3.dcache.LoadLockedReq_avg_mshr_miss_latency::total  4107.142857                       # average LoadLockedReq mshr miss latency
system.cpu3.dcache.StoreCondReq_avg_mshr_miss_latency::cpu3.data  7573.770492                       # average StoreCondReq mshr miss latency
system.cpu3.dcache.StoreCondReq_avg_mshr_miss_latency::total  7573.770492                       # average StoreCondReq mshr miss latency
system.cpu3.dcache.demand_avg_mshr_miss_latency::cpu3.data 17602.847950                       # average overall mshr miss latency
system.cpu3.dcache.demand_avg_mshr_miss_latency::total 17602.847950                       # average overall mshr miss latency
system.cpu3.dcache.overall_avg_mshr_miss_latency::cpu3.data 17602.847950                       # average overall mshr miss latency
system.cpu3.dcache.overall_avg_mshr_miss_latency::total 17602.847950                       # average overall mshr miss latency
system.cpu3.dcache.no_allocate_misses               0                       # Number of misses that were no-allocate

---------- End Simulation Statistics   ----------
