
---------- Begin Simulation Statistics ----------
sim_seconds                                  0.063761                       # Number of seconds simulated
sim_ticks                                 63760899000                       # Number of ticks simulated
final_tick                                63760899000                       # Number of ticks from beginning of simulation (restored from checkpoints and never reset)
sim_freq                                 1000000000000                       # Frequency of simulated ticks
host_inst_rate                                 144119                       # Simulator instruction rate (inst/s)
host_op_rate                                   144119                       # Simulator op (including micro ops) rate (op/s)
host_tick_rate                               15690732                       # Simulator tick rate (ticks/s)
host_mem_usage                                 371632                       # Number of bytes of host memory used
host_seconds                                  4063.60                       # Real time elapsed on the host
sim_insts                                   585641293                       # Number of instructions simulated
sim_ops                                     585641293                       # Number of ops (including micro ops) simulated
system.physmem.bytes_read::cpu0.inst           230528                       # Number of bytes read from this memory
system.physmem.bytes_read::cpu0.data          1431040                       # Number of bytes read from this memory
system.physmem.bytes_read::cpu1.inst            18624                       # Number of bytes read from this memory
system.physmem.bytes_read::cpu1.data           718464                       # Number of bytes read from this memory
system.physmem.bytes_read::cpu2.inst             4224                       # Number of bytes read from this memory
system.physmem.bytes_read::cpu2.data           727168                       # Number of bytes read from this memory
system.physmem.bytes_read::cpu3.inst             8896                       # Number of bytes read from this memory
system.physmem.bytes_read::cpu3.data           748864                       # Number of bytes read from this memory
system.physmem.bytes_read::total              3887808                       # Number of bytes read from this memory
system.physmem.bytes_inst_read::cpu0.inst       230528                       # Number of instructions bytes read from this memory
system.physmem.bytes_inst_read::cpu1.inst        18624                       # Number of instructions bytes read from this memory
system.physmem.bytes_inst_read::cpu2.inst         4224                       # Number of instructions bytes read from this memory
system.physmem.bytes_inst_read::cpu3.inst         8896                       # Number of instructions bytes read from this memory
system.physmem.bytes_inst_read::total          262272                       # Number of instructions bytes read from this memory
system.physmem.bytes_written::writebacks      2407616                       # Number of bytes written to this memory
system.physmem.bytes_written::total           2407616                       # Number of bytes written to this memory
system.physmem.num_reads::cpu0.inst              3602                       # Number of read requests responded to by this memory
system.physmem.num_reads::cpu0.data             22360                       # Number of read requests responded to by this memory
system.physmem.num_reads::cpu1.inst               291                       # Number of read requests responded to by this memory
system.physmem.num_reads::cpu1.data             11226                       # Number of read requests responded to by this memory
system.physmem.num_reads::cpu2.inst                66                       # Number of read requests responded to by this memory
system.physmem.num_reads::cpu2.data             11362                       # Number of read requests responded to by this memory
system.physmem.num_reads::cpu3.inst               139                       # Number of read requests responded to by this memory
system.physmem.num_reads::cpu3.data             11701                       # Number of read requests responded to by this memory
system.physmem.num_reads::total                 60747                       # Number of read requests responded to by this memory
system.physmem.num_writes::writebacks           37619                       # Number of write requests responded to by this memory
system.physmem.num_writes::total                37619                       # Number of write requests responded to by this memory
system.physmem.bw_read::cpu0.inst             3615507                       # Total read bandwidth from this memory (bytes/s)
system.physmem.bw_read::cpu0.data            22443849                       # Total read bandwidth from this memory (bytes/s)
system.physmem.bw_read::cpu1.inst              292091                       # Total read bandwidth from this memory (bytes/s)
system.physmem.bw_read::cpu1.data            11268097                       # Total read bandwidth from this memory (bytes/s)
system.physmem.bw_read::cpu2.inst               66247                       # Total read bandwidth from this memory (bytes/s)
system.physmem.bw_read::cpu2.data            11404607                       # Total read bandwidth from this memory (bytes/s)
system.physmem.bw_read::cpu3.inst              139521                       # Total read bandwidth from this memory (bytes/s)
system.physmem.bw_read::cpu3.data            11744878                       # Total read bandwidth from this memory (bytes/s)
system.physmem.bw_read::total                60974799                       # Total read bandwidth from this memory (bytes/s)
system.physmem.bw_inst_read::cpu0.inst        3615507                       # Instruction read bandwidth from this memory (bytes/s)
system.physmem.bw_inst_read::cpu1.inst         292091                       # Instruction read bandwidth from this memory (bytes/s)
system.physmem.bw_inst_read::cpu2.inst          66247                       # Instruction read bandwidth from this memory (bytes/s)
system.physmem.bw_inst_read::cpu3.inst         139521                       # Instruction read bandwidth from this memory (bytes/s)
system.physmem.bw_inst_read::total            4113367                       # Instruction read bandwidth from this memory (bytes/s)
system.physmem.bw_write::writebacks          37760070                       # Write bandwidth from this memory (bytes/s)
system.physmem.bw_write::total               37760070                       # Write bandwidth from this memory (bytes/s)
system.physmem.bw_total::writebacks          37760070                       # Total bandwidth to/from this memory (bytes/s)
system.physmem.bw_total::cpu0.inst            3615507                       # Total bandwidth to/from this memory (bytes/s)
system.physmem.bw_total::cpu0.data           22443849                       # Total bandwidth to/from this memory (bytes/s)
system.physmem.bw_total::cpu1.inst             292091                       # Total bandwidth to/from this memory (bytes/s)
system.physmem.bw_total::cpu1.data           11268097                       # Total bandwidth to/from this memory (bytes/s)
system.physmem.bw_total::cpu2.inst              66247                       # Total bandwidth to/from this memory (bytes/s)
system.physmem.bw_total::cpu2.data           11404607                       # Total bandwidth to/from this memory (bytes/s)
system.physmem.bw_total::cpu3.inst             139521                       # Total bandwidth to/from this memory (bytes/s)
system.physmem.bw_total::cpu3.data           11744878                       # Total bandwidth to/from this memory (bytes/s)
system.physmem.bw_total::total               98734869                       # Total bandwidth to/from this memory (bytes/s)
workload.num_syscalls                             806                       # Number of system calls
system.l2.replacements                          63209                       # number of replacements
system.l2.tagsinuse                       3713.335301                       # Cycle average of tags in use
system.l2.total_refs                           671293                       # Total number of references to valid blocks.
system.l2.sampled_refs                          67207                       # Sample count of references to valid blocks.
system.l2.avg_refs                           9.988439                       # Average number of references to valid blocks.
system.l2.warmup_cycle                    32195916000                       # Cycle when the warmup percentage was hit.
system.l2.occ_blocks::writebacks          1119.005920                       # Average occupied blocks per requestor
system.l2.occ_blocks::cpu0.inst            132.829654                       # Average occupied blocks per requestor
system.l2.occ_blocks::cpu0.data            670.714603                       # Average occupied blocks per requestor
system.l2.occ_blocks::cpu1.inst             20.109929                       # Average occupied blocks per requestor
system.l2.occ_blocks::cpu1.data            547.454875                       # Average occupied blocks per requestor
system.l2.occ_blocks::cpu2.inst              5.147686                       # Average occupied blocks per requestor
system.l2.occ_blocks::cpu2.data            567.173498                       # Average occupied blocks per requestor
system.l2.occ_blocks::cpu3.inst             11.670015                       # Average occupied blocks per requestor
system.l2.occ_blocks::cpu3.data            639.229120                       # Average occupied blocks per requestor
system.l2.occ_percent::writebacks            0.273195                       # Average percentage of cache occupancy
system.l2.occ_percent::cpu0.inst             0.032429                       # Average percentage of cache occupancy
system.l2.occ_percent::cpu0.data             0.163749                       # Average percentage of cache occupancy
system.l2.occ_percent::cpu1.inst             0.004910                       # Average percentage of cache occupancy
system.l2.occ_percent::cpu1.data             0.133656                       # Average percentage of cache occupancy
system.l2.occ_percent::cpu2.inst             0.001257                       # Average percentage of cache occupancy
system.l2.occ_percent::cpu2.data             0.138470                       # Average percentage of cache occupancy
system.l2.occ_percent::cpu3.inst             0.002849                       # Average percentage of cache occupancy
system.l2.occ_percent::cpu3.data             0.156062                       # Average percentage of cache occupancy
system.l2.occ_percent::total                 0.906576                       # Average percentage of cache occupancy
system.l2.ReadReq_hits::cpu0.inst              315692                       # number of ReadReq hits
system.l2.ReadReq_hits::cpu0.data               75492                       # number of ReadReq hits
system.l2.ReadReq_hits::cpu1.inst                 285                       # number of ReadReq hits
system.l2.ReadReq_hits::cpu1.data               65189                       # number of ReadReq hits
system.l2.ReadReq_hits::cpu2.inst                 537                       # number of ReadReq hits
system.l2.ReadReq_hits::cpu2.data               64193                       # number of ReadReq hits
system.l2.ReadReq_hits::cpu3.inst                 492                       # number of ReadReq hits
system.l2.ReadReq_hits::cpu3.data               66135                       # number of ReadReq hits
system.l2.ReadReq_hits::total                  588015                       # number of ReadReq hits
system.l2.Writeback_hits::writebacks           102270                       # number of Writeback hits
system.l2.Writeback_hits::total                102270                       # number of Writeback hits
system.l2.UpgradeReq_hits::cpu0.data              164                       # number of UpgradeReq hits
system.l2.UpgradeReq_hits::cpu1.data              170                       # number of UpgradeReq hits
system.l2.UpgradeReq_hits::cpu2.data              142                       # number of UpgradeReq hits
system.l2.UpgradeReq_hits::cpu3.data              143                       # number of UpgradeReq hits
system.l2.UpgradeReq_hits::total                  619                       # number of UpgradeReq hits
system.l2.SCUpgradeReq_hits::cpu0.data              4                       # number of SCUpgradeReq hits
system.l2.SCUpgradeReq_hits::cpu2.data              2                       # number of SCUpgradeReq hits
system.l2.SCUpgradeReq_hits::cpu3.data              1                       # number of SCUpgradeReq hits
system.l2.SCUpgradeReq_hits::total                  7                       # number of SCUpgradeReq hits
system.l2.ReadExReq_hits::cpu0.data               253                       # number of ReadExReq hits
system.l2.ReadExReq_hits::cpu1.data                70                       # number of ReadExReq hits
system.l2.ReadExReq_hits::cpu2.data               131                       # number of ReadExReq hits
system.l2.ReadExReq_hits::cpu3.data                89                       # number of ReadExReq hits
system.l2.ReadExReq_hits::total                   543                       # number of ReadExReq hits
system.l2.demand_hits::cpu0.inst               315692                       # number of demand (read+write) hits
system.l2.demand_hits::cpu0.data                75745                       # number of demand (read+write) hits
system.l2.demand_hits::cpu1.inst                  285                       # number of demand (read+write) hits
system.l2.demand_hits::cpu1.data                65259                       # number of demand (read+write) hits
system.l2.demand_hits::cpu2.inst                  537                       # number of demand (read+write) hits
system.l2.demand_hits::cpu2.data                64324                       # number of demand (read+write) hits
system.l2.demand_hits::cpu3.inst                  492                       # number of demand (read+write) hits
system.l2.demand_hits::cpu3.data                66224                       # number of demand (read+write) hits
system.l2.demand_hits::total                   588558                       # number of demand (read+write) hits
system.l2.overall_hits::cpu0.inst              315692                       # number of overall hits
system.l2.overall_hits::cpu0.data               75745                       # number of overall hits
system.l2.overall_hits::cpu1.inst                 285                       # number of overall hits
system.l2.overall_hits::cpu1.data               65259                       # number of overall hits
system.l2.overall_hits::cpu2.inst                 537                       # number of overall hits
system.l2.overall_hits::cpu2.data               64324                       # number of overall hits
system.l2.overall_hits::cpu3.inst                 492                       # number of overall hits
system.l2.overall_hits::cpu3.data               66224                       # number of overall hits
system.l2.overall_hits::total                  588558                       # number of overall hits
system.l2.ReadReq_misses::cpu0.inst              3624                       # number of ReadReq misses
system.l2.ReadReq_misses::cpu0.data             13262                       # number of ReadReq misses
system.l2.ReadReq_misses::cpu1.inst               372                       # number of ReadReq misses
system.l2.ReadReq_misses::cpu1.data             10152                       # number of ReadReq misses
system.l2.ReadReq_misses::cpu2.inst               130                       # number of ReadReq misses
system.l2.ReadReq_misses::cpu2.data             10273                       # number of ReadReq misses
system.l2.ReadReq_misses::cpu3.inst               212                       # number of ReadReq misses
system.l2.ReadReq_misses::cpu3.data             10606                       # number of ReadReq misses
system.l2.ReadReq_misses::total                 48631                       # number of ReadReq misses
system.l2.UpgradeReq_misses::cpu0.data              9                       # number of UpgradeReq misses
system.l2.UpgradeReq_misses::cpu1.data              4                       # number of UpgradeReq misses
system.l2.UpgradeReq_misses::cpu2.data              2                       # number of UpgradeReq misses
system.l2.UpgradeReq_misses::cpu3.data              1                       # number of UpgradeReq misses
system.l2.UpgradeReq_misses::total                 16                       # number of UpgradeReq misses
system.l2.SCUpgradeReq_misses::cpu0.data           11                       # number of SCUpgradeReq misses
system.l2.SCUpgradeReq_misses::cpu2.data            1                       # number of SCUpgradeReq misses
system.l2.SCUpgradeReq_misses::cpu3.data            8                       # number of SCUpgradeReq misses
system.l2.SCUpgradeReq_misses::total               20                       # number of SCUpgradeReq misses
system.l2.ReadExReq_misses::cpu0.data            9119                       # number of ReadExReq misses
system.l2.ReadExReq_misses::cpu1.data            1126                       # number of ReadExReq misses
system.l2.ReadExReq_misses::cpu2.data            1122                       # number of ReadExReq misses
system.l2.ReadExReq_misses::cpu3.data            1134                       # number of ReadExReq misses
system.l2.ReadExReq_misses::total               12501                       # number of ReadExReq misses
system.l2.demand_misses::cpu0.inst               3624                       # number of demand (read+write) misses
system.l2.demand_misses::cpu0.data              22381                       # number of demand (read+write) misses
system.l2.demand_misses::cpu1.inst                372                       # number of demand (read+write) misses
system.l2.demand_misses::cpu1.data              11278                       # number of demand (read+write) misses
system.l2.demand_misses::cpu2.inst                130                       # number of demand (read+write) misses
system.l2.demand_misses::cpu2.data              11395                       # number of demand (read+write) misses
system.l2.demand_misses::cpu3.inst                212                       # number of demand (read+write) misses
system.l2.demand_misses::cpu3.data              11740                       # number of demand (read+write) misses
system.l2.demand_misses::total                  61132                       # number of demand (read+write) misses
system.l2.overall_misses::cpu0.inst              3624                       # number of overall misses
system.l2.overall_misses::cpu0.data             22381                       # number of overall misses
system.l2.overall_misses::cpu1.inst               372                       # number of overall misses
system.l2.overall_misses::cpu1.data             11278                       # number of overall misses
system.l2.overall_misses::cpu2.inst               130                       # number of overall misses
system.l2.overall_misses::cpu2.data             11395                       # number of overall misses
system.l2.overall_misses::cpu3.inst               212                       # number of overall misses
system.l2.overall_misses::cpu3.data             11740                       # number of overall misses
system.l2.overall_misses::total                 61132                       # number of overall misses
system.l2.ReadReq_miss_latency::cpu0.inst    188230000                       # number of ReadReq miss cycles
system.l2.ReadReq_miss_latency::cpu0.data    698187000                       # number of ReadReq miss cycles
system.l2.ReadReq_miss_latency::cpu1.inst     18870000                       # number of ReadReq miss cycles
system.l2.ReadReq_miss_latency::cpu1.data    535577000                       # number of ReadReq miss cycles
system.l2.ReadReq_miss_latency::cpu2.inst      6233000                       # number of ReadReq miss cycles
system.l2.ReadReq_miss_latency::cpu2.data    542538000                       # number of ReadReq miss cycles
system.l2.ReadReq_miss_latency::cpu3.inst     10587000                       # number of ReadReq miss cycles
system.l2.ReadReq_miss_latency::cpu3.data    559999000                       # number of ReadReq miss cycles
system.l2.ReadReq_miss_latency::total      2560221000                       # number of ReadReq miss cycles
system.l2.UpgradeReq_miss_latency::cpu0.data        52000                       # number of UpgradeReq miss cycles
system.l2.UpgradeReq_miss_latency::cpu1.data       217000                       # number of UpgradeReq miss cycles
system.l2.UpgradeReq_miss_latency::cpu2.data       104000                       # number of UpgradeReq miss cycles
system.l2.UpgradeReq_miss_latency::total       373000                       # number of UpgradeReq miss cycles
system.l2.ReadExReq_miss_latency::cpu0.data    479029000                       # number of ReadExReq miss cycles
system.l2.ReadExReq_miss_latency::cpu1.data     59259000                       # number of ReadExReq miss cycles
system.l2.ReadExReq_miss_latency::cpu2.data     59021000                       # number of ReadExReq miss cycles
system.l2.ReadExReq_miss_latency::cpu3.data     59684000                       # number of ReadExReq miss cycles
system.l2.ReadExReq_miss_latency::total     656993000                       # number of ReadExReq miss cycles
system.l2.demand_miss_latency::cpu0.inst    188230000                       # number of demand (read+write) miss cycles
system.l2.demand_miss_latency::cpu0.data   1177216000                       # number of demand (read+write) miss cycles
system.l2.demand_miss_latency::cpu1.inst     18870000                       # number of demand (read+write) miss cycles
system.l2.demand_miss_latency::cpu1.data    594836000                       # number of demand (read+write) miss cycles
system.l2.demand_miss_latency::cpu2.inst      6233000                       # number of demand (read+write) miss cycles
system.l2.demand_miss_latency::cpu2.data    601559000                       # number of demand (read+write) miss cycles
system.l2.demand_miss_latency::cpu3.inst     10587000                       # number of demand (read+write) miss cycles
system.l2.demand_miss_latency::cpu3.data    619683000                       # number of demand (read+write) miss cycles
system.l2.demand_miss_latency::total       3217214000                       # number of demand (read+write) miss cycles
system.l2.overall_miss_latency::cpu0.inst    188230000                       # number of overall miss cycles
system.l2.overall_miss_latency::cpu0.data   1177216000                       # number of overall miss cycles
system.l2.overall_miss_latency::cpu1.inst     18870000                       # number of overall miss cycles
system.l2.overall_miss_latency::cpu1.data    594836000                       # number of overall miss cycles
system.l2.overall_miss_latency::cpu2.inst      6233000                       # number of overall miss cycles
system.l2.overall_miss_latency::cpu2.data    601559000                       # number of overall miss cycles
system.l2.overall_miss_latency::cpu3.inst     10587000                       # number of overall miss cycles
system.l2.overall_miss_latency::cpu3.data    619683000                       # number of overall miss cycles
system.l2.overall_miss_latency::total      3217214000                       # number of overall miss cycles
system.l2.ReadReq_accesses::cpu0.inst          319316                       # number of ReadReq accesses(hits+misses)
system.l2.ReadReq_accesses::cpu0.data           88754                       # number of ReadReq accesses(hits+misses)
system.l2.ReadReq_accesses::cpu1.inst             657                       # number of ReadReq accesses(hits+misses)
system.l2.ReadReq_accesses::cpu1.data           75341                       # number of ReadReq accesses(hits+misses)
system.l2.ReadReq_accesses::cpu2.inst             667                       # number of ReadReq accesses(hits+misses)
system.l2.ReadReq_accesses::cpu2.data           74466                       # number of ReadReq accesses(hits+misses)
system.l2.ReadReq_accesses::cpu3.inst             704                       # number of ReadReq accesses(hits+misses)
system.l2.ReadReq_accesses::cpu3.data           76741                       # number of ReadReq accesses(hits+misses)
system.l2.ReadReq_accesses::total              636646                       # number of ReadReq accesses(hits+misses)
system.l2.Writeback_accesses::writebacks       102270                       # number of Writeback accesses(hits+misses)
system.l2.Writeback_accesses::total            102270                       # number of Writeback accesses(hits+misses)
system.l2.UpgradeReq_accesses::cpu0.data          173                       # number of UpgradeReq accesses(hits+misses)
system.l2.UpgradeReq_accesses::cpu1.data          174                       # number of UpgradeReq accesses(hits+misses)
system.l2.UpgradeReq_accesses::cpu2.data          144                       # number of UpgradeReq accesses(hits+misses)
system.l2.UpgradeReq_accesses::cpu3.data          144                       # number of UpgradeReq accesses(hits+misses)
system.l2.UpgradeReq_accesses::total              635                       # number of UpgradeReq accesses(hits+misses)
system.l2.SCUpgradeReq_accesses::cpu0.data           15                       # number of SCUpgradeReq accesses(hits+misses)
system.l2.SCUpgradeReq_accesses::cpu2.data            3                       # number of SCUpgradeReq accesses(hits+misses)
system.l2.SCUpgradeReq_accesses::cpu3.data            9                       # number of SCUpgradeReq accesses(hits+misses)
system.l2.SCUpgradeReq_accesses::total             27                       # number of SCUpgradeReq accesses(hits+misses)
system.l2.ReadExReq_accesses::cpu0.data          9372                       # number of ReadExReq accesses(hits+misses)
system.l2.ReadExReq_accesses::cpu1.data          1196                       # number of ReadExReq accesses(hits+misses)
system.l2.ReadExReq_accesses::cpu2.data          1253                       # number of ReadExReq accesses(hits+misses)
system.l2.ReadExReq_accesses::cpu3.data          1223                       # number of ReadExReq accesses(hits+misses)
system.l2.ReadExReq_accesses::total             13044                       # number of ReadExReq accesses(hits+misses)
system.l2.demand_accesses::cpu0.inst           319316                       # number of demand (read+write) accesses
system.l2.demand_accesses::cpu0.data            98126                       # number of demand (read+write) accesses
system.l2.demand_accesses::cpu1.inst              657                       # number of demand (read+write) accesses
system.l2.demand_accesses::cpu1.data            76537                       # number of demand (read+write) accesses
system.l2.demand_accesses::cpu2.inst              667                       # number of demand (read+write) accesses
system.l2.demand_accesses::cpu2.data            75719                       # number of demand (read+write) accesses
system.l2.demand_accesses::cpu3.inst              704                       # number of demand (read+write) accesses
system.l2.demand_accesses::cpu3.data            77964                       # number of demand (read+write) accesses
system.l2.demand_accesses::total               649690                       # number of demand (read+write) accesses
system.l2.overall_accesses::cpu0.inst          319316                       # number of overall (read+write) accesses
system.l2.overall_accesses::cpu0.data           98126                       # number of overall (read+write) accesses
system.l2.overall_accesses::cpu1.inst             657                       # number of overall (read+write) accesses
system.l2.overall_accesses::cpu1.data           76537                       # number of overall (read+write) accesses
system.l2.overall_accesses::cpu2.inst             667                       # number of overall (read+write) accesses
system.l2.overall_accesses::cpu2.data           75719                       # number of overall (read+write) accesses
system.l2.overall_accesses::cpu3.inst             704                       # number of overall (read+write) accesses
system.l2.overall_accesses::cpu3.data           77964                       # number of overall (read+write) accesses
system.l2.overall_accesses::total              649690                       # number of overall (read+write) accesses
system.l2.ReadReq_miss_rate::cpu0.inst       0.011349                       # miss rate for ReadReq accesses
system.l2.ReadReq_miss_rate::cpu0.data       0.149424                       # miss rate for ReadReq accesses
system.l2.ReadReq_miss_rate::cpu1.inst       0.566210                       # miss rate for ReadReq accesses
system.l2.ReadReq_miss_rate::cpu1.data       0.134747                       # miss rate for ReadReq accesses
system.l2.ReadReq_miss_rate::cpu2.inst       0.194903                       # miss rate for ReadReq accesses
system.l2.ReadReq_miss_rate::cpu2.data       0.137956                       # miss rate for ReadReq accesses
system.l2.ReadReq_miss_rate::cpu3.inst       0.301136                       # miss rate for ReadReq accesses
system.l2.ReadReq_miss_rate::cpu3.data       0.138205                       # miss rate for ReadReq accesses
system.l2.ReadReq_miss_rate::total           0.076386                       # miss rate for ReadReq accesses
system.l2.UpgradeReq_miss_rate::cpu0.data     0.052023                       # miss rate for UpgradeReq accesses
system.l2.UpgradeReq_miss_rate::cpu1.data     0.022989                       # miss rate for UpgradeReq accesses
system.l2.UpgradeReq_miss_rate::cpu2.data     0.013889                       # miss rate for UpgradeReq accesses
system.l2.UpgradeReq_miss_rate::cpu3.data     0.006944                       # miss rate for UpgradeReq accesses
system.l2.UpgradeReq_miss_rate::total        0.025197                       # miss rate for UpgradeReq accesses
system.l2.SCUpgradeReq_miss_rate::cpu0.data     0.733333                       # miss rate for SCUpgradeReq accesses
system.l2.SCUpgradeReq_miss_rate::cpu2.data     0.333333                       # miss rate for SCUpgradeReq accesses
system.l2.SCUpgradeReq_miss_rate::cpu3.data     0.888889                       # miss rate for SCUpgradeReq accesses
system.l2.SCUpgradeReq_miss_rate::total      0.740741                       # miss rate for SCUpgradeReq accesses
system.l2.ReadExReq_miss_rate::cpu0.data     0.973005                       # miss rate for ReadExReq accesses
system.l2.ReadExReq_miss_rate::cpu1.data     0.941472                       # miss rate for ReadExReq accesses
system.l2.ReadExReq_miss_rate::cpu2.data     0.895451                       # miss rate for ReadExReq accesses
system.l2.ReadExReq_miss_rate::cpu3.data     0.927228                       # miss rate for ReadExReq accesses
system.l2.ReadExReq_miss_rate::total         0.958372                       # miss rate for ReadExReq accesses
system.l2.demand_miss_rate::cpu0.inst        0.011349                       # miss rate for demand accesses
system.l2.demand_miss_rate::cpu0.data        0.228084                       # miss rate for demand accesses
system.l2.demand_miss_rate::cpu1.inst        0.566210                       # miss rate for demand accesses
system.l2.demand_miss_rate::cpu1.data        0.147354                       # miss rate for demand accesses
system.l2.demand_miss_rate::cpu2.inst        0.194903                       # miss rate for demand accesses
system.l2.demand_miss_rate::cpu2.data        0.150491                       # miss rate for demand accesses
system.l2.demand_miss_rate::cpu3.inst        0.301136                       # miss rate for demand accesses
system.l2.demand_miss_rate::cpu3.data        0.150582                       # miss rate for demand accesses
system.l2.demand_miss_rate::total            0.094094                       # miss rate for demand accesses
system.l2.overall_miss_rate::cpu0.inst       0.011349                       # miss rate for overall accesses
system.l2.overall_miss_rate::cpu0.data       0.228084                       # miss rate for overall accesses
system.l2.overall_miss_rate::cpu1.inst       0.566210                       # miss rate for overall accesses
system.l2.overall_miss_rate::cpu1.data       0.147354                       # miss rate for overall accesses
system.l2.overall_miss_rate::cpu2.inst       0.194903                       # miss rate for overall accesses
system.l2.overall_miss_rate::cpu2.data       0.150491                       # miss rate for overall accesses
system.l2.overall_miss_rate::cpu3.inst       0.301136                       # miss rate for overall accesses
system.l2.overall_miss_rate::cpu3.data       0.150582                       # miss rate for overall accesses
system.l2.overall_miss_rate::total           0.094094                       # miss rate for overall accesses
system.l2.ReadReq_avg_miss_latency::cpu0.inst 51939.845475                       # average ReadReq miss latency
system.l2.ReadReq_avg_miss_latency::cpu0.data 52645.679385                       # average ReadReq miss latency
system.l2.ReadReq_avg_miss_latency::cpu1.inst 50725.806452                       # average ReadReq miss latency
system.l2.ReadReq_avg_miss_latency::cpu1.data 52755.811663                       # average ReadReq miss latency
system.l2.ReadReq_avg_miss_latency::cpu2.inst 47946.153846                       # average ReadReq miss latency
system.l2.ReadReq_avg_miss_latency::cpu2.data 52812.031539                       # average ReadReq miss latency
system.l2.ReadReq_avg_miss_latency::cpu3.inst 49938.679245                       # average ReadReq miss latency
system.l2.ReadReq_avg_miss_latency::cpu3.data 52800.207430                       # average ReadReq miss latency
system.l2.ReadReq_avg_miss_latency::total 52645.863749                       # average ReadReq miss latency
system.l2.UpgradeReq_avg_miss_latency::cpu0.data  5777.777778                       # average UpgradeReq miss latency
system.l2.UpgradeReq_avg_miss_latency::cpu1.data        54250                       # average UpgradeReq miss latency
system.l2.UpgradeReq_avg_miss_latency::cpu2.data        52000                       # average UpgradeReq miss latency
system.l2.UpgradeReq_avg_miss_latency::total 23312.500000                       # average UpgradeReq miss latency
system.l2.ReadExReq_avg_miss_latency::cpu0.data 52530.869613                       # average ReadExReq miss latency
system.l2.ReadExReq_avg_miss_latency::cpu1.data 52627.886323                       # average ReadExReq miss latency
system.l2.ReadExReq_avg_miss_latency::cpu2.data 52603.386809                       # average ReadExReq miss latency
system.l2.ReadExReq_avg_miss_latency::cpu3.data 52631.393298                       # average ReadExReq miss latency
system.l2.ReadExReq_avg_miss_latency::total 52555.235581                       # average ReadExReq miss latency
system.l2.demand_avg_miss_latency::cpu0.inst 51939.845475                       # average overall miss latency
system.l2.demand_avg_miss_latency::cpu0.data 52598.900853                       # average overall miss latency
system.l2.demand_avg_miss_latency::cpu1.inst 50725.806452                       # average overall miss latency
system.l2.demand_avg_miss_latency::cpu1.data 52743.039546                       # average overall miss latency
system.l2.demand_avg_miss_latency::cpu2.inst 47946.153846                       # average overall miss latency
system.l2.demand_avg_miss_latency::cpu2.data 52791.487495                       # average overall miss latency
system.l2.demand_avg_miss_latency::cpu3.inst 49938.679245                       # average overall miss latency
system.l2.demand_avg_miss_latency::cpu3.data 52783.901193                       # average overall miss latency
system.l2.demand_avg_miss_latency::total 52627.331021                       # average overall miss latency
system.l2.overall_avg_miss_latency::cpu0.inst 51939.845475                       # average overall miss latency
system.l2.overall_avg_miss_latency::cpu0.data 52598.900853                       # average overall miss latency
system.l2.overall_avg_miss_latency::cpu1.inst 50725.806452                       # average overall miss latency
system.l2.overall_avg_miss_latency::cpu1.data 52743.039546                       # average overall miss latency
system.l2.overall_avg_miss_latency::cpu2.inst 47946.153846                       # average overall miss latency
system.l2.overall_avg_miss_latency::cpu2.data 52791.487495                       # average overall miss latency
system.l2.overall_avg_miss_latency::cpu3.inst 49938.679245                       # average overall miss latency
system.l2.overall_avg_miss_latency::cpu3.data 52783.901193                       # average overall miss latency
system.l2.overall_avg_miss_latency::total 52627.331021                       # average overall miss latency
system.l2.blocked_cycles::no_mshrs                  0                       # number of cycles access was blocked
system.l2.blocked_cycles::no_targets                0                       # number of cycles access was blocked
system.l2.blocked::no_mshrs                         0                       # number of cycles access was blocked
system.l2.blocked::no_targets                       0                       # number of cycles access was blocked
system.l2.avg_blocked_cycles::no_mshrs            nan                       # average number of cycles each access was blocked
system.l2.avg_blocked_cycles::no_targets          nan                       # average number of cycles each access was blocked
system.l2.fast_writes                               0                       # number of fast writes performed
system.l2.cache_copies                              0                       # number of cache copies performed
system.l2.writebacks::writebacks                37619                       # number of writebacks
system.l2.writebacks::total                     37619                       # number of writebacks
system.l2.ReadReq_mshr_hits::cpu0.inst             22                       # number of ReadReq MSHR hits
system.l2.ReadReq_mshr_hits::cpu0.data             20                       # number of ReadReq MSHR hits
system.l2.ReadReq_mshr_hits::cpu1.inst             81                       # number of ReadReq MSHR hits
system.l2.ReadReq_mshr_hits::cpu1.data             52                       # number of ReadReq MSHR hits
system.l2.ReadReq_mshr_hits::cpu2.inst             64                       # number of ReadReq MSHR hits
system.l2.ReadReq_mshr_hits::cpu2.data             33                       # number of ReadReq MSHR hits
system.l2.ReadReq_mshr_hits::cpu3.inst             73                       # number of ReadReq MSHR hits
system.l2.ReadReq_mshr_hits::cpu3.data             39                       # number of ReadReq MSHR hits
system.l2.ReadReq_mshr_hits::total                384                       # number of ReadReq MSHR hits
system.l2.demand_mshr_hits::cpu0.inst              22                       # number of demand (read+write) MSHR hits
system.l2.demand_mshr_hits::cpu0.data              20                       # number of demand (read+write) MSHR hits
system.l2.demand_mshr_hits::cpu1.inst              81                       # number of demand (read+write) MSHR hits
system.l2.demand_mshr_hits::cpu1.data              52                       # number of demand (read+write) MSHR hits
system.l2.demand_mshr_hits::cpu2.inst              64                       # number of demand (read+write) MSHR hits
system.l2.demand_mshr_hits::cpu2.data              33                       # number of demand (read+write) MSHR hits
system.l2.demand_mshr_hits::cpu3.inst              73                       # number of demand (read+write) MSHR hits
system.l2.demand_mshr_hits::cpu3.data              39                       # number of demand (read+write) MSHR hits
system.l2.demand_mshr_hits::total                 384                       # number of demand (read+write) MSHR hits
system.l2.overall_mshr_hits::cpu0.inst             22                       # number of overall MSHR hits
system.l2.overall_mshr_hits::cpu0.data             20                       # number of overall MSHR hits
system.l2.overall_mshr_hits::cpu1.inst             81                       # number of overall MSHR hits
system.l2.overall_mshr_hits::cpu1.data             52                       # number of overall MSHR hits
system.l2.overall_mshr_hits::cpu2.inst             64                       # number of overall MSHR hits
system.l2.overall_mshr_hits::cpu2.data             33                       # number of overall MSHR hits
system.l2.overall_mshr_hits::cpu3.inst             73                       # number of overall MSHR hits
system.l2.overall_mshr_hits::cpu3.data             39                       # number of overall MSHR hits
system.l2.overall_mshr_hits::total                384                       # number of overall MSHR hits
system.l2.ReadReq_mshr_misses::cpu0.inst         3602                       # number of ReadReq MSHR misses
system.l2.ReadReq_mshr_misses::cpu0.data        13242                       # number of ReadReq MSHR misses
system.l2.ReadReq_mshr_misses::cpu1.inst          291                       # number of ReadReq MSHR misses
system.l2.ReadReq_mshr_misses::cpu1.data        10100                       # number of ReadReq MSHR misses
system.l2.ReadReq_mshr_misses::cpu2.inst           66                       # number of ReadReq MSHR misses
system.l2.ReadReq_mshr_misses::cpu2.data        10240                       # number of ReadReq MSHR misses
system.l2.ReadReq_mshr_misses::cpu3.inst          139                       # number of ReadReq MSHR misses
system.l2.ReadReq_mshr_misses::cpu3.data        10567                       # number of ReadReq MSHR misses
system.l2.ReadReq_mshr_misses::total            48247                       # number of ReadReq MSHR misses
system.l2.UpgradeReq_mshr_misses::cpu0.data            9                       # number of UpgradeReq MSHR misses
system.l2.UpgradeReq_mshr_misses::cpu1.data            4                       # number of UpgradeReq MSHR misses
system.l2.UpgradeReq_mshr_misses::cpu2.data            2                       # number of UpgradeReq MSHR misses
system.l2.UpgradeReq_mshr_misses::cpu3.data            1                       # number of UpgradeReq MSHR misses
system.l2.UpgradeReq_mshr_misses::total            16                       # number of UpgradeReq MSHR misses
system.l2.SCUpgradeReq_mshr_misses::cpu0.data           11                       # number of SCUpgradeReq MSHR misses
system.l2.SCUpgradeReq_mshr_misses::cpu2.data            1                       # number of SCUpgradeReq MSHR misses
system.l2.SCUpgradeReq_mshr_misses::cpu3.data            8                       # number of SCUpgradeReq MSHR misses
system.l2.SCUpgradeReq_mshr_misses::total           20                       # number of SCUpgradeReq MSHR misses
system.l2.ReadExReq_mshr_misses::cpu0.data         9119                       # number of ReadExReq MSHR misses
system.l2.ReadExReq_mshr_misses::cpu1.data         1126                       # number of ReadExReq MSHR misses
system.l2.ReadExReq_mshr_misses::cpu2.data         1122                       # number of ReadExReq MSHR misses
system.l2.ReadExReq_mshr_misses::cpu3.data         1134                       # number of ReadExReq MSHR misses
system.l2.ReadExReq_mshr_misses::total          12501                       # number of ReadExReq MSHR misses
system.l2.demand_mshr_misses::cpu0.inst          3602                       # number of demand (read+write) MSHR misses
system.l2.demand_mshr_misses::cpu0.data         22361                       # number of demand (read+write) MSHR misses
system.l2.demand_mshr_misses::cpu1.inst           291                       # number of demand (read+write) MSHR misses
system.l2.demand_mshr_misses::cpu1.data         11226                       # number of demand (read+write) MSHR misses
system.l2.demand_mshr_misses::cpu2.inst            66                       # number of demand (read+write) MSHR misses
system.l2.demand_mshr_misses::cpu2.data         11362                       # number of demand (read+write) MSHR misses
system.l2.demand_mshr_misses::cpu3.inst           139                       # number of demand (read+write) MSHR misses
system.l2.demand_mshr_misses::cpu3.data         11701                       # number of demand (read+write) MSHR misses
system.l2.demand_mshr_misses::total             60748                       # number of demand (read+write) MSHR misses
system.l2.overall_mshr_misses::cpu0.inst         3602                       # number of overall MSHR misses
system.l2.overall_mshr_misses::cpu0.data        22361                       # number of overall MSHR misses
system.l2.overall_mshr_misses::cpu1.inst          291                       # number of overall MSHR misses
system.l2.overall_mshr_misses::cpu1.data        11226                       # number of overall MSHR misses
system.l2.overall_mshr_misses::cpu2.inst           66                       # number of overall MSHR misses
system.l2.overall_mshr_misses::cpu2.data        11362                       # number of overall MSHR misses
system.l2.overall_mshr_misses::cpu3.inst          139                       # number of overall MSHR misses
system.l2.overall_mshr_misses::cpu3.data        11701                       # number of overall MSHR misses
system.l2.overall_mshr_misses::total            60748                       # number of overall MSHR misses
system.l2.ReadReq_mshr_miss_latency::cpu0.inst    144183000                       # number of ReadReq MSHR miss cycles
system.l2.ReadReq_mshr_miss_latency::cpu0.data    538618000                       # number of ReadReq MSHR miss cycles
system.l2.ReadReq_mshr_miss_latency::cpu1.inst     11680000                       # number of ReadReq MSHR miss cycles
system.l2.ReadReq_mshr_miss_latency::cpu1.data    412304000                       # number of ReadReq MSHR miss cycles
system.l2.ReadReq_mshr_miss_latency::cpu2.inst      2673000                       # number of ReadReq MSHR miss cycles
system.l2.ReadReq_mshr_miss_latency::cpu2.data    418323000                       # number of ReadReq MSHR miss cycles
system.l2.ReadReq_mshr_miss_latency::cpu3.inst      5579000                       # number of ReadReq MSHR miss cycles
system.l2.ReadReq_mshr_miss_latency::cpu3.data    431737000                       # number of ReadReq MSHR miss cycles
system.l2.ReadReq_mshr_miss_latency::total   1965097000                       # number of ReadReq MSHR miss cycles
system.l2.UpgradeReq_mshr_miss_latency::cpu0.data       361000                       # number of UpgradeReq MSHR miss cycles
system.l2.UpgradeReq_mshr_miss_latency::cpu1.data       169000                       # number of UpgradeReq MSHR miss cycles
system.l2.UpgradeReq_mshr_miss_latency::cpu2.data        80000                       # number of UpgradeReq MSHR miss cycles
system.l2.UpgradeReq_mshr_miss_latency::cpu3.data        40000                       # number of UpgradeReq MSHR miss cycles
system.l2.UpgradeReq_mshr_miss_latency::total       650000                       # number of UpgradeReq MSHR miss cycles
system.l2.SCUpgradeReq_mshr_miss_latency::cpu0.data       441000                       # number of SCUpgradeReq MSHR miss cycles
system.l2.SCUpgradeReq_mshr_miss_latency::cpu2.data        40000                       # number of SCUpgradeReq MSHR miss cycles
system.l2.SCUpgradeReq_mshr_miss_latency::cpu3.data       321000                       # number of SCUpgradeReq MSHR miss cycles
system.l2.SCUpgradeReq_mshr_miss_latency::total       802000                       # number of SCUpgradeReq MSHR miss cycles
system.l2.ReadExReq_mshr_miss_latency::cpu0.data    369601000                       # number of ReadExReq MSHR miss cycles
system.l2.ReadExReq_mshr_miss_latency::cpu1.data     45747000                       # number of ReadExReq MSHR miss cycles
system.l2.ReadExReq_mshr_miss_latency::cpu2.data     45557000                       # number of ReadExReq MSHR miss cycles
system.l2.ReadExReq_mshr_miss_latency::cpu3.data     46076000                       # number of ReadExReq MSHR miss cycles
system.l2.ReadExReq_mshr_miss_latency::total    506981000                       # number of ReadExReq MSHR miss cycles
system.l2.demand_mshr_miss_latency::cpu0.inst    144183000                       # number of demand (read+write) MSHR miss cycles
system.l2.demand_mshr_miss_latency::cpu0.data    908219000                       # number of demand (read+write) MSHR miss cycles
system.l2.demand_mshr_miss_latency::cpu1.inst     11680000                       # number of demand (read+write) MSHR miss cycles
system.l2.demand_mshr_miss_latency::cpu1.data    458051000                       # number of demand (read+write) MSHR miss cycles
system.l2.demand_mshr_miss_latency::cpu2.inst      2673000                       # number of demand (read+write) MSHR miss cycles
system.l2.demand_mshr_miss_latency::cpu2.data    463880000                       # number of demand (read+write) MSHR miss cycles
system.l2.demand_mshr_miss_latency::cpu3.inst      5579000                       # number of demand (read+write) MSHR miss cycles
system.l2.demand_mshr_miss_latency::cpu3.data    477813000                       # number of demand (read+write) MSHR miss cycles
system.l2.demand_mshr_miss_latency::total   2472078000                       # number of demand (read+write) MSHR miss cycles
system.l2.overall_mshr_miss_latency::cpu0.inst    144183000                       # number of overall MSHR miss cycles
system.l2.overall_mshr_miss_latency::cpu0.data    908219000                       # number of overall MSHR miss cycles
system.l2.overall_mshr_miss_latency::cpu1.inst     11680000                       # number of overall MSHR miss cycles
system.l2.overall_mshr_miss_latency::cpu1.data    458051000                       # number of overall MSHR miss cycles
system.l2.overall_mshr_miss_latency::cpu2.inst      2673000                       # number of overall MSHR miss cycles
system.l2.overall_mshr_miss_latency::cpu2.data    463880000                       # number of overall MSHR miss cycles
system.l2.overall_mshr_miss_latency::cpu3.inst      5579000                       # number of overall MSHR miss cycles
system.l2.overall_mshr_miss_latency::cpu3.data    477813000                       # number of overall MSHR miss cycles
system.l2.overall_mshr_miss_latency::total   2472078000                       # number of overall MSHR miss cycles
system.l2.ReadReq_mshr_miss_rate::cpu0.inst     0.011280                       # mshr miss rate for ReadReq accesses
system.l2.ReadReq_mshr_miss_rate::cpu0.data     0.149199                       # mshr miss rate for ReadReq accesses
system.l2.ReadReq_mshr_miss_rate::cpu1.inst     0.442922                       # mshr miss rate for ReadReq accesses
system.l2.ReadReq_mshr_miss_rate::cpu1.data     0.134057                       # mshr miss rate for ReadReq accesses
system.l2.ReadReq_mshr_miss_rate::cpu2.inst     0.098951                       # mshr miss rate for ReadReq accesses
system.l2.ReadReq_mshr_miss_rate::cpu2.data     0.137512                       # mshr miss rate for ReadReq accesses
system.l2.ReadReq_mshr_miss_rate::cpu3.inst     0.197443                       # mshr miss rate for ReadReq accesses
system.l2.ReadReq_mshr_miss_rate::cpu3.data     0.137697                       # mshr miss rate for ReadReq accesses
system.l2.ReadReq_mshr_miss_rate::total      0.075783                       # mshr miss rate for ReadReq accesses
system.l2.UpgradeReq_mshr_miss_rate::cpu0.data     0.052023                       # mshr miss rate for UpgradeReq accesses
system.l2.UpgradeReq_mshr_miss_rate::cpu1.data     0.022989                       # mshr miss rate for UpgradeReq accesses
system.l2.UpgradeReq_mshr_miss_rate::cpu2.data     0.013889                       # mshr miss rate for UpgradeReq accesses
system.l2.UpgradeReq_mshr_miss_rate::cpu3.data     0.006944                       # mshr miss rate for UpgradeReq accesses
system.l2.UpgradeReq_mshr_miss_rate::total     0.025197                       # mshr miss rate for UpgradeReq accesses
system.l2.SCUpgradeReq_mshr_miss_rate::cpu0.data     0.733333                       # mshr miss rate for SCUpgradeReq accesses
system.l2.SCUpgradeReq_mshr_miss_rate::cpu2.data     0.333333                       # mshr miss rate for SCUpgradeReq accesses
system.l2.SCUpgradeReq_mshr_miss_rate::cpu3.data     0.888889                       # mshr miss rate for SCUpgradeReq accesses
system.l2.SCUpgradeReq_mshr_miss_rate::total     0.740741                       # mshr miss rate for SCUpgradeReq accesses
system.l2.ReadExReq_mshr_miss_rate::cpu0.data     0.973005                       # mshr miss rate for ReadExReq accesses
system.l2.ReadExReq_mshr_miss_rate::cpu1.data     0.941472                       # mshr miss rate for ReadExReq accesses
system.l2.ReadExReq_mshr_miss_rate::cpu2.data     0.895451                       # mshr miss rate for ReadExReq accesses
system.l2.ReadExReq_mshr_miss_rate::cpu3.data     0.927228                       # mshr miss rate for ReadExReq accesses
system.l2.ReadExReq_mshr_miss_rate::total     0.958372                       # mshr miss rate for ReadExReq accesses
system.l2.demand_mshr_miss_rate::cpu0.inst     0.011280                       # mshr miss rate for demand accesses
system.l2.demand_mshr_miss_rate::cpu0.data     0.227880                       # mshr miss rate for demand accesses
system.l2.demand_mshr_miss_rate::cpu1.inst     0.442922                       # mshr miss rate for demand accesses
system.l2.demand_mshr_miss_rate::cpu1.data     0.146674                       # mshr miss rate for demand accesses
system.l2.demand_mshr_miss_rate::cpu2.inst     0.098951                       # mshr miss rate for demand accesses
system.l2.demand_mshr_miss_rate::cpu2.data     0.150055                       # mshr miss rate for demand accesses
system.l2.demand_mshr_miss_rate::cpu3.inst     0.197443                       # mshr miss rate for demand accesses
system.l2.demand_mshr_miss_rate::cpu3.data     0.150082                       # mshr miss rate for demand accesses
system.l2.demand_mshr_miss_rate::total       0.093503                       # mshr miss rate for demand accesses
system.l2.overall_mshr_miss_rate::cpu0.inst     0.011280                       # mshr miss rate for overall accesses
system.l2.overall_mshr_miss_rate::cpu0.data     0.227880                       # mshr miss rate for overall accesses
system.l2.overall_mshr_miss_rate::cpu1.inst     0.442922                       # mshr miss rate for overall accesses
system.l2.overall_mshr_miss_rate::cpu1.data     0.146674                       # mshr miss rate for overall accesses
system.l2.overall_mshr_miss_rate::cpu2.inst     0.098951                       # mshr miss rate for overall accesses
system.l2.overall_mshr_miss_rate::cpu2.data     0.150055                       # mshr miss rate for overall accesses
system.l2.overall_mshr_miss_rate::cpu3.inst     0.197443                       # mshr miss rate for overall accesses
system.l2.overall_mshr_miss_rate::cpu3.data     0.150082                       # mshr miss rate for overall accesses
system.l2.overall_mshr_miss_rate::total      0.093503                       # mshr miss rate for overall accesses
system.l2.ReadReq_avg_mshr_miss_latency::cpu0.inst 40028.595225                       # average ReadReq mshr miss latency
system.l2.ReadReq_avg_mshr_miss_latency::cpu0.data 40674.973569                       # average ReadReq mshr miss latency
system.l2.ReadReq_avg_mshr_miss_latency::cpu1.inst 40137.457045                       # average ReadReq mshr miss latency
system.l2.ReadReq_avg_mshr_miss_latency::cpu1.data 40822.178218                       # average ReadReq mshr miss latency
system.l2.ReadReq_avg_mshr_miss_latency::cpu2.inst        40500                       # average ReadReq mshr miss latency
system.l2.ReadReq_avg_mshr_miss_latency::cpu2.data 40851.855469                       # average ReadReq mshr miss latency
system.l2.ReadReq_avg_mshr_miss_latency::cpu3.inst 40136.690647                       # average ReadReq mshr miss latency
system.l2.ReadReq_avg_mshr_miss_latency::cpu3.data 40857.102300                       # average ReadReq mshr miss latency
system.l2.ReadReq_avg_mshr_miss_latency::total 40729.931395                       # average ReadReq mshr miss latency
system.l2.UpgradeReq_avg_mshr_miss_latency::cpu0.data 40111.111111                       # average UpgradeReq mshr miss latency
system.l2.UpgradeReq_avg_mshr_miss_latency::cpu1.data        42250                       # average UpgradeReq mshr miss latency
system.l2.UpgradeReq_avg_mshr_miss_latency::cpu2.data        40000                       # average UpgradeReq mshr miss latency
system.l2.UpgradeReq_avg_mshr_miss_latency::cpu3.data        40000                       # average UpgradeReq mshr miss latency
system.l2.UpgradeReq_avg_mshr_miss_latency::total        40625                       # average UpgradeReq mshr miss latency
system.l2.SCUpgradeReq_avg_mshr_miss_latency::cpu0.data 40090.909091                       # average SCUpgradeReq mshr miss latency
system.l2.SCUpgradeReq_avg_mshr_miss_latency::cpu2.data        40000                       # average SCUpgradeReq mshr miss latency
system.l2.SCUpgradeReq_avg_mshr_miss_latency::cpu3.data        40125                       # average SCUpgradeReq mshr miss latency
system.l2.SCUpgradeReq_avg_mshr_miss_latency::total        40100                       # average SCUpgradeReq mshr miss latency
system.l2.ReadExReq_avg_mshr_miss_latency::cpu0.data 40530.869613                       # average ReadExReq mshr miss latency
system.l2.ReadExReq_avg_mshr_miss_latency::cpu1.data 40627.886323                       # average ReadExReq mshr miss latency
system.l2.ReadExReq_avg_mshr_miss_latency::cpu2.data 40603.386809                       # average ReadExReq mshr miss latency
system.l2.ReadExReq_avg_mshr_miss_latency::cpu3.data 40631.393298                       # average ReadExReq mshr miss latency
system.l2.ReadExReq_avg_mshr_miss_latency::total 40555.235581                       # average ReadExReq mshr miss latency
system.l2.demand_avg_mshr_miss_latency::cpu0.inst 40028.595225                       # average overall mshr miss latency
system.l2.demand_avg_mshr_miss_latency::cpu0.data 40616.206789                       # average overall mshr miss latency
system.l2.demand_avg_mshr_miss_latency::cpu1.inst 40137.457045                       # average overall mshr miss latency
system.l2.demand_avg_mshr_miss_latency::cpu1.data 40802.690184                       # average overall mshr miss latency
system.l2.demand_avg_mshr_miss_latency::cpu2.inst        40500                       # average overall mshr miss latency
system.l2.demand_avg_mshr_miss_latency::cpu2.data 40827.319134                       # average overall mshr miss latency
system.l2.demand_avg_mshr_miss_latency::cpu3.inst 40136.690647                       # average overall mshr miss latency
system.l2.demand_avg_mshr_miss_latency::cpu3.data 40835.227758                       # average overall mshr miss latency
system.l2.demand_avg_mshr_miss_latency::total 40693.981695                       # average overall mshr miss latency
system.l2.overall_avg_mshr_miss_latency::cpu0.inst 40028.595225                       # average overall mshr miss latency
system.l2.overall_avg_mshr_miss_latency::cpu0.data 40616.206789                       # average overall mshr miss latency
system.l2.overall_avg_mshr_miss_latency::cpu1.inst 40137.457045                       # average overall mshr miss latency
system.l2.overall_avg_mshr_miss_latency::cpu1.data 40802.690184                       # average overall mshr miss latency
system.l2.overall_avg_mshr_miss_latency::cpu2.inst        40500                       # average overall mshr miss latency
system.l2.overall_avg_mshr_miss_latency::cpu2.data 40827.319134                       # average overall mshr miss latency
system.l2.overall_avg_mshr_miss_latency::cpu3.inst 40136.690647                       # average overall mshr miss latency
system.l2.overall_avg_mshr_miss_latency::cpu3.data 40835.227758                       # average overall mshr miss latency
system.l2.overall_avg_mshr_miss_latency::total 40693.981695                       # average overall mshr miss latency
system.l2.no_allocate_misses                        0                       # Number of misses that were no-allocate
system.cpu0.dtb.fetch_hits                          0                       # ITB hits
system.cpu0.dtb.fetch_misses                        0                       # ITB misses
system.cpu0.dtb.fetch_acv                           0                       # ITB acv
system.cpu0.dtb.fetch_accesses                      0                       # ITB accesses
system.cpu0.dtb.read_hits                    36900882                       # DTB read hits
system.cpu0.dtb.read_misses                     22168                       # DTB read misses
system.cpu0.dtb.read_acv                            4                       # DTB read access violations
system.cpu0.dtb.read_accesses                36923050                       # DTB read accesses
system.cpu0.dtb.write_hits                   14903866                       # DTB write hits
system.cpu0.dtb.write_misses                      681                       # DTB write misses
system.cpu0.dtb.write_acv                           0                       # DTB write access violations
system.cpu0.dtb.write_accesses               14904547                       # DTB write accesses
system.cpu0.dtb.data_hits                    51804748                       # DTB hits
system.cpu0.dtb.data_misses                     22849                       # DTB misses
system.cpu0.dtb.data_acv                            4                       # DTB access violations
system.cpu0.dtb.data_accesses                51827597                       # DTB accesses
system.cpu0.itb.fetch_hits                   26769372                       # ITB hits
system.cpu0.itb.fetch_misses                      305                       # ITB misses
system.cpu0.itb.fetch_acv                           0                       # ITB acv
system.cpu0.itb.fetch_accesses               26769677                       # ITB accesses
system.cpu0.itb.read_hits                           0                       # DTB read hits
system.cpu0.itb.read_misses                         0                       # DTB read misses
system.cpu0.itb.read_acv                            0                       # DTB read access violations
system.cpu0.itb.read_accesses                       0                       # DTB read accesses
system.cpu0.itb.write_hits                          0                       # DTB write hits
system.cpu0.itb.write_misses                        0                       # DTB write misses
system.cpu0.itb.write_acv                           0                       # DTB write access violations
system.cpu0.itb.write_accesses                      0                       # DTB write accesses
system.cpu0.itb.data_hits                           0                       # DTB hits
system.cpu0.itb.data_misses                         0                       # DTB misses
system.cpu0.itb.data_acv                            0                       # DTB access violations
system.cpu0.itb.data_accesses                       0                       # DTB accesses
system.cpu0.numCycles                        63685671                       # number of cpu cycles simulated
system.cpu0.numWorkItemsStarted                     0                       # number of work items this cpu started
system.cpu0.numWorkItemsCompleted                   0                       # number of work items this cpu completed
system.cpu0.BPredUnit.lookups                27598948                       # Number of BP lookups
system.cpu0.BPredUnit.condPredicted          23759019                       # Number of conditional branches predicted
system.cpu0.BPredUnit.condIncorrect            693797                       # Number of conditional branches incorrect
system.cpu0.BPredUnit.BTBLookups             19814590                       # Number of BTB lookups
system.cpu0.BPredUnit.BTBHits                19304647                       # Number of BTB hits
system.cpu0.BPredUnit.BTBCorrect                    0                       # Number of correct BTB predictions (this stat may not work properly.
system.cpu0.BPredUnit.usedRAS                 1068572                       # Number of times the RAS was used to get a target.
system.cpu0.BPredUnit.RASInCorrect               1251                       # Number of incorrect RAS predictions.
system.cpu0.fetch.icacheStallCycles           4638111                       # Number of cycles fetch is stalled on an Icache miss
system.cpu0.fetch.Insts                     194641875                       # Number of instructions fetch has processed
system.cpu0.fetch.Branches                   27598948                       # Number of branches that fetch encountered
system.cpu0.fetch.predictedBranches          20373219                       # Number of branches that fetch has predicted taken
system.cpu0.fetch.Cycles                     36246963                       # Number of cycles fetch has run and was not squashing or blocked
system.cpu0.fetch.SquashCycles                3177710                       # Number of cycles fetch has spent squashing
system.cpu0.fetch.BlockedCycles              20165378                       # Number of cycles fetch has spent blocked
system.cpu0.fetch.MiscStallCycles                 136                       # Number of cycles fetch has spent waiting on interrupts, or bad addresses, or out of MSHRs
system.cpu0.fetch.PendingTrapStallCycles         4969                       # Number of stall cycles due to pending traps
system.cpu0.fetch.CacheLines                 26769372                       # Number of cache lines fetched
system.cpu0.fetch.IcacheSquashes                31797                       # Number of outstanding Icache misses that were squashed
system.cpu0.fetch.rateDist::samples          63534734                       # Number of instructions fetched each cycle (Total)
system.cpu0.fetch.rateDist::mean             3.063551                       # Number of instructions fetched each cycle (Total)
system.cpu0.fetch.rateDist::stdev            3.159248                       # Number of instructions fetched each cycle (Total)
system.cpu0.fetch.rateDist::underflows              0      0.00%      0.00% # Number of instructions fetched each cycle (Total)
system.cpu0.fetch.rateDist::0                27287771     42.95%     42.95% # Number of instructions fetched each cycle (Total)
system.cpu0.fetch.rateDist::1                 2996907      4.72%     47.67% # Number of instructions fetched each cycle (Total)
system.cpu0.fetch.rateDist::2                 1208364      1.90%     49.57% # Number of instructions fetched each cycle (Total)
system.cpu0.fetch.rateDist::3                 1434406      2.26%     51.83% # Number of instructions fetched each cycle (Total)
system.cpu0.fetch.rateDist::4                 8494358     13.37%     65.20% # Number of instructions fetched each cycle (Total)
system.cpu0.fetch.rateDist::5                 7594017     11.95%     77.15% # Number of instructions fetched each cycle (Total)
system.cpu0.fetch.rateDist::6                 1161077      1.83%     78.98% # Number of instructions fetched each cycle (Total)
system.cpu0.fetch.rateDist::7                  851629      1.34%     80.32% # Number of instructions fetched each cycle (Total)
system.cpu0.fetch.rateDist::8                12506205     19.68%    100.00% # Number of instructions fetched each cycle (Total)
system.cpu0.fetch.rateDist::overflows               0      0.00%    100.00% # Number of instructions fetched each cycle (Total)
system.cpu0.fetch.rateDist::min_value               0                       # Number of instructions fetched each cycle (Total)
system.cpu0.fetch.rateDist::max_value               8                       # Number of instructions fetched each cycle (Total)
system.cpu0.fetch.rateDist::total            63534734                       # Number of instructions fetched each cycle (Total)
system.cpu0.fetch.branchRate                 0.433362                       # Number of branch fetches per cycle
system.cpu0.fetch.rate                       3.056290                       # Number of inst fetches per cycle
system.cpu0.decode.IdleCycles                 8195473                       # Number of cycles decode is idle
system.cpu0.decode.BlockedCycles             17260981                       # Number of cycles decode is blocked
system.cpu0.decode.RunCycles                 32756610                       # Number of cycles decode is running
system.cpu0.decode.UnblockCycles              2845214                       # Number of cycles decode is unblocking
system.cpu0.decode.SquashCycles               2476456                       # Number of cycles decode is squashing
system.cpu0.decode.BranchResolved             2535245                       # Number of times decode resolved a branch
system.cpu0.decode.BranchMispred                 2780                       # Number of times decode detected a branch misprediction
system.cpu0.decode.DecodedInsts             191495227                       # Number of instructions handled by decode
system.cpu0.decode.SquashedInsts                13954                       # Number of squashed instructions handled by decode
system.cpu0.rename.SquashCycles               2476456                       # Number of cycles rename is squashing
system.cpu0.rename.IdleCycles                11512931                       # Number of cycles rename is idle
system.cpu0.rename.BlockCycles               10046411                       # Number of cycles rename is blocking
system.cpu0.rename.serializeStallCycles        433692                       # count of cycles rename stalled for serializing inst
system.cpu0.rename.RunCycles                 32205544                       # Number of cycles rename is running
system.cpu0.rename.UnblockCycles              6859700                       # Number of cycles rename is unblocking
system.cpu0.rename.RenamedInsts             188383476                       # Number of instructions processed by rename
system.cpu0.rename.ROBFullEvents                  480                       # Number of times rename has blocked due to ROB full
system.cpu0.rename.IQFullEvents                 69665                       # Number of times rename has blocked due to IQ full
system.cpu0.rename.LSQFullEvents              4636762                       # Number of times rename has blocked due to LSQ full
system.cpu0.rename.RenamedOperands          140670359                       # Number of destination operands rename has renamed
system.cpu0.rename.RenameLookups            256313544                       # Number of register rename lookups that rename has made
system.cpu0.rename.int_rename_lookups        93925696                       # Number of integer rename lookups
system.cpu0.rename.fp_rename_lookups        162387848                       # Number of floating rename lookups
system.cpu0.rename.CommittedMaps            123878808                       # Number of HB maps that are committed
system.cpu0.rename.UndoneMaps                16791551                       # Number of HB maps that are undone due to squashing
system.cpu0.rename.serializingInsts             39647                       # count of serializing insts renamed
system.cpu0.rename.tempSerializingInsts         14826                       # count of temporary serializing insts renamed
system.cpu0.rename.skidInsts                 25119314                       # count of insts added to the skid buffer
system.cpu0.memDep0.insertedLoads            37327367                       # Number of loads inserted to the mem dependence unit.
system.cpu0.memDep0.insertedStores           15353979                       # Number of stores inserted to the mem dependence unit.
system.cpu0.memDep0.conflictingLoads          2498860                       # Number of conflicting loads.
system.cpu0.memDep0.conflictingStores         1289784                       # Number of conflicting stores.
system.cpu0.iq.iqInstsAdded                 176123178                       # Number of instructions added to the IQ (excludes non-spec)
system.cpu0.iq.iqNonSpecInstsAdded              27059                       # Number of non-speculative instructions added to the IQ
system.cpu0.iq.iqInstsIssued                170546931                       # Number of instructions issued
system.cpu0.iq.iqSquashedInstsIssued           471615                       # Number of squashed instructions issued
system.cpu0.iq.iqSquashedInstsExamined       15735785                       # Number of squashed instructions iterated over during squash; mainly for profiling
system.cpu0.iq.iqSquashedOperandsExamined     10275097                       # Number of squashed operands that are examined and possibly removed from graph
system.cpu0.iq.iqSquashedNonSpecRemoved           829                       # Number of squashed non-spec instructions that were removed
system.cpu0.iq.issued_per_cycle::samples     63534734                       # Number of insts issued each cycle
system.cpu0.iq.issued_per_cycle::mean        2.684310                       # Number of insts issued each cycle
system.cpu0.iq.issued_per_cycle::stdev       2.083534                       # Number of insts issued each cycle
system.cpu0.iq.issued_per_cycle::underflows            0      0.00%      0.00% # Number of insts issued each cycle
system.cpu0.iq.issued_per_cycle::0           15481765     24.37%     24.37% # Number of insts issued each cycle
system.cpu0.iq.issued_per_cycle::1            6576547     10.35%     34.72% # Number of insts issued each cycle
system.cpu0.iq.issued_per_cycle::2            6237890      9.82%     44.54% # Number of insts issued each cycle
system.cpu0.iq.issued_per_cycle::3           11986958     18.87%     63.40% # Number of insts issued each cycle
system.cpu0.iq.issued_per_cycle::4            9050514     14.24%     77.65% # Number of insts issued each cycle
system.cpu0.iq.issued_per_cycle::5            7106341     11.18%     88.83% # Number of insts issued each cycle
system.cpu0.iq.issued_per_cycle::6            6019793      9.47%     98.31% # Number of insts issued each cycle
system.cpu0.iq.issued_per_cycle::7             918197      1.45%     99.75% # Number of insts issued each cycle
system.cpu0.iq.issued_per_cycle::8             156729      0.25%    100.00% # Number of insts issued each cycle
system.cpu0.iq.issued_per_cycle::overflows            0      0.00%    100.00% # Number of insts issued each cycle
system.cpu0.iq.issued_per_cycle::min_value            0                       # Number of insts issued each cycle
system.cpu0.iq.issued_per_cycle::max_value            8                       # Number of insts issued each cycle
system.cpu0.iq.issued_per_cycle::total       63534734                       # Number of insts issued each cycle
system.cpu0.iq.fu_full::No_OpClass                  0      0.00%      0.00% # attempts to use FU when none available
system.cpu0.iq.fu_full::IntAlu                  85042      2.84%      2.84% # attempts to use FU when none available
system.cpu0.iq.fu_full::IntMult                     0      0.00%      2.84% # attempts to use FU when none available
system.cpu0.iq.fu_full::IntDiv                      0      0.00%      2.84% # attempts to use FU when none available
system.cpu0.iq.fu_full::FloatAdd               217504      7.27%     10.11% # attempts to use FU when none available
system.cpu0.iq.fu_full::FloatCmp                    6      0.00%     10.11% # attempts to use FU when none available
system.cpu0.iq.fu_full::FloatCvt                    0      0.00%     10.11% # attempts to use FU when none available
system.cpu0.iq.fu_full::FloatMult             1258434     42.05%     52.16% # attempts to use FU when none available
system.cpu0.iq.fu_full::FloatDiv               186131      6.22%     58.38% # attempts to use FU when none available
system.cpu0.iq.fu_full::FloatSqrt                   0      0.00%     58.38% # attempts to use FU when none available
system.cpu0.iq.fu_full::SimdAdd                     0      0.00%     58.38% # attempts to use FU when none available
system.cpu0.iq.fu_full::SimdAddAcc                  0      0.00%     58.38% # attempts to use FU when none available
system.cpu0.iq.fu_full::SimdAlu                     0      0.00%     58.38% # attempts to use FU when none available
system.cpu0.iq.fu_full::SimdCmp                     0      0.00%     58.38% # attempts to use FU when none available
system.cpu0.iq.fu_full::SimdCvt                     0      0.00%     58.38% # attempts to use FU when none available
system.cpu0.iq.fu_full::SimdMisc                    0      0.00%     58.38% # attempts to use FU when none available
system.cpu0.iq.fu_full::SimdMult                    0      0.00%     58.38% # attempts to use FU when none available
system.cpu0.iq.fu_full::SimdMultAcc                 0      0.00%     58.38% # attempts to use FU when none available
system.cpu0.iq.fu_full::SimdShift                   0      0.00%     58.38% # attempts to use FU when none available
system.cpu0.iq.fu_full::SimdShiftAcc                0      0.00%     58.38% # attempts to use FU when none available
system.cpu0.iq.fu_full::SimdSqrt                    0      0.00%     58.38% # attempts to use FU when none available
system.cpu0.iq.fu_full::SimdFloatAdd                0      0.00%     58.38% # attempts to use FU when none available
system.cpu0.iq.fu_full::SimdFloatAlu                0      0.00%     58.38% # attempts to use FU when none available
system.cpu0.iq.fu_full::SimdFloatCmp                0      0.00%     58.38% # attempts to use FU when none available
system.cpu0.iq.fu_full::SimdFloatCvt                0      0.00%     58.38% # attempts to use FU when none available
system.cpu0.iq.fu_full::SimdFloatDiv                0      0.00%     58.38% # attempts to use FU when none available
system.cpu0.iq.fu_full::SimdFloatMisc               0      0.00%     58.38% # attempts to use FU when none available
system.cpu0.iq.fu_full::SimdFloatMult               0      0.00%     58.38% # attempts to use FU when none available
system.cpu0.iq.fu_full::SimdFloatMultAcc            0      0.00%     58.38% # attempts to use FU when none available
system.cpu0.iq.fu_full::SimdFloatSqrt               0      0.00%     58.38% # attempts to use FU when none available
system.cpu0.iq.fu_full::MemRead               1135840     37.95%     96.33% # attempts to use FU when none available
system.cpu0.iq.fu_full::MemWrite               109820      3.67%    100.00% # attempts to use FU when none available
[...]
system.cpu3.icache.demand_mshr_miss_latency::total     17675000                       # number of demand (read+write) MSHR miss cycles
system.cpu3.icache.overall_mshr_miss_latency::cpu3.inst     17675000                       # number of overall MSHR miss cycles
system.cpu3.icache.overall_mshr_miss_latency::total     17675000                       # number of overall MSHR miss cycles
system.cpu3.icache.ReadReq_mshr_miss_rate::cpu3.inst     0.000030                       # mshr miss rate for ReadReq accesses
system.cpu3.icache.ReadReq_mshr_miss_rate::total     0.000030                       # mshr miss rate for ReadReq accesses
system.cpu3.icache.demand_mshr_miss_rate::cpu3.inst     0.000030                       # mshr miss rate for demand accesses
system.cpu3.icache.demand_mshr_miss_rate::total     0.000030                       # mshr miss rate for demand accesses
system.cpu3.icache.overall_mshr_miss_rate::cpu3.inst     0.000030                       # mshr miss rate for overall accesses
system.cpu3.icache.overall_mshr_miss_rate::total     0.000030                       # mshr miss rate for overall accesses
system.cpu3.icache.ReadReq_avg_mshr_miss_latency::cpu3.inst 25106.534091                       # average ReadReq mshr miss latency
system.cpu3.icache.ReadReq_avg_mshr_miss_latency::total 25106.534091                       # average ReadReq mshr miss latency
system.cpu3.icache.demand_avg_mshr_miss_latency::cpu3.inst 25106.534091                       # average overall mshr miss latency
system.cpu3.icache.demand_avg_mshr_miss_latency::total 25106.534091                       # average overall mshr miss latency
system.cpu3.icache.overall_avg_mshr_miss_latency::cpu3.inst 25106.534091                       # average overall mshr miss latency
system.cpu3.icache.overall_avg_mshr_miss_latency::total 25106.534091                       # average overall mshr miss latency
system.cpu3.icache.no_allocate_misses               0                       # Number of misses that were no-allocate
system.cpu3.dcache.replacements                 85311                       # number of replacements
system.cpu3.dcache.tagsinuse               416.208502                       # Cycle average of tags in use
system.cpu3.dcache.total_refs                42400152                       # Total number of references to valid blocks.
system.cpu3.dcache.sampled_refs                 85812                       # Sample count of references to valid blocks.
system.cpu3.dcache.avg_refs                494.105160                       # Average number of references to valid blocks.
system.cpu3.dcache.warmup_cycle                     0                       # Cycle when the warmup percentage was hit.
system.cpu3.dcache.occ_blocks::cpu3.data   416.208502                       # Average occupied blocks per requestor
system.cpu3.dcache.occ_percent::cpu3.data     0.812907                       # Average percentage of cache occupancy
system.cpu3.dcache.occ_percent::total        0.812907                       # Average percentage of cache occupancy
system.cpu3.dcache.ReadReq_hits::cpu3.data     29936886                       # number of ReadReq hits
system.cpu3.dcache.ReadReq_hits::total       29936886                       # number of ReadReq hits
system.cpu3.dcache.WriteReq_hits::cpu3.data     12462803                       # number of WriteReq hits
system.cpu3.dcache.WriteReq_hits::total      12462803                       # number of WriteReq hits
system.cpu3.dcache.LoadLockedReq_hits::cpu3.data           90                       # number of LoadLockedReq hits
system.cpu3.dcache.LoadLockedReq_hits::total           90                       # number of LoadLockedReq hits
system.cpu3.dcache.StoreCondReq_hits::cpu3.data           39                       # number of StoreCondReq hits
system.cpu3.dcache.StoreCondReq_hits::total           39                       # number of StoreCondReq hits
system.cpu3.dcache.demand_hits::cpu3.data     42399689                       # number of demand (read+write) hits
system.cpu3.dcache.demand_hits::total        42399689                       # number of demand (read+write) hits
system.cpu3.dcache.overall_hits::cpu3.data     42399689                       # number of overall hits
system.cpu3.dcache.overall_hits::total       42399689                       # number of overall hits
system.cpu3.dcache.ReadReq_misses::cpu3.data       241590                       # number of ReadReq misses
system.cpu3.dcache.ReadReq_misses::total       241590                       # number of ReadReq misses
system.cpu3.dcache.WriteReq_misses::cpu3.data         5762                       # number of WriteReq misses
system.cpu3.dcache.WriteReq_misses::total         5762                       # number of WriteReq misses
system.cpu3.dcache.LoadLockedReq_misses::cpu3.data           28                       # number of LoadLockedReq misses
system.cpu3.dcache.LoadLockedReq_misses::total           28                       # number of LoadLockedReq misses
system.cpu3.dcache.StoreCondReq_misses::cpu3.data           62                       # number of StoreCondReq misses
system.cpu3.dcache.StoreCondReq_misses::total           62                       # number of StoreCondReq misses
system.cpu3.dcache.demand_misses::cpu3.data       247352                       # number of demand (read+write) misses
system.cpu3.dcache.demand_misses::total        247352                       # number of demand (read+write) misses
system.cpu3.dcache.overall_misses::cpu3.data       247352                       # number of overall misses
system.cpu3.dcache.overall_misses::total       247352                       # number of overall misses
system.cpu3.dcache.ReadReq_miss_latency::cpu3.data   3793480000                       # number of ReadReq miss cycles
system.cpu3.dcache.ReadReq_miss_latency::total   3793480000                       # number of ReadReq miss cycles
system.cpu3.dcache.WriteReq_miss_latency::cpu3.data    295854994                       # number of WriteReq miss cycles
system.cpu3.dcache.WriteReq_miss_latency::total    295854994                       # number of WriteReq miss cycles
system.cpu3.dcache.LoadLockedReq_miss_latency::cpu3.data       192000                       # number of LoadLockedReq miss cycles
system.cpu3.dcache.LoadLockedReq_miss_latency::total       192000                       # number of LoadLockedReq miss cycles
system.cpu3.dcache.StoreCondReq_miss_latency::cpu3.data       759000                       # number of StoreCondReq miss cycles
system.cpu3.dcache.StoreCondReq_miss_latency::total       759000                       # number of StoreCondReq miss cycles
system.cpu3.dcache.demand_miss_latency::cpu3.data   4089334994                       # number of demand (read+write) miss cycles
system.cpu3.dcache.demand_miss_latency::total   4089334994                       # number of demand (read+write) miss cycles
system.cpu3.dcache.overall_miss_latency::cpu3.data   4089334994                       # number of overall miss cycles
system.cpu3.dcache.overall_miss_latency::total   4089334994                       # number of overall miss cycles
system.cpu3.dcache.ReadReq_accesses::cpu3.data     30178476                       # number of ReadReq accesses(hits+misses)
system.cpu3.dcache.ReadReq_accesses::total     30178476                       # number of ReadReq accesses(hits+misses)
system.cpu3.dcache.WriteReq_accesses::cpu3.data     12468565                       # number of WriteReq accesses(hits+misses)
system.cpu3.dcache.WriteReq_accesses::total     12468565                       # number of WriteReq accesses(hits+misses)
system.cpu3.dcache.LoadLockedReq_accesses::cpu3.data          118                       # number of LoadLockedReq accesses(hits+misses)
system.cpu3.dcache.LoadLockedReq_accesses::total          118                       # number of LoadLockedReq accesses(hits+misses)
system.cpu3.dcache.StoreCondReq_accesses::cpu3.data          101                       # number of StoreCondReq accesses(hits+misses)
system.cpu3.dcache.StoreCondReq_accesses::total          101                       # number of StoreCondReq accesses(hits+misses)
system.cpu3.dcache.demand_accesses::cpu3.data     42647041                       # number of demand (read+write) accesses
system.cpu3.dcache.demand_accesses::total     42647041                       # number of demand (read+write) accesses
system.cpu3.dcache.overall_accesses::cpu3.data     42647041                       # number of overall (read+write) accesses
system.cpu3.dcache.overall_accesses::total     42647041                       # number of overall (read+write) accesses
system.cpu3.dcache.ReadReq_miss_rate::cpu3.data     0.008005                       # miss rate for ReadReq accesses
system.cpu3.dcache.ReadReq_miss_rate::total     0.008005                       # miss rate for ReadReq accesses
system.cpu3.dcache.WriteReq_miss_rate::cpu3.data     0.000462                       # miss rate for WriteReq accesses
system.cpu3.dcache.WriteReq_miss_rate::total     0.000462                       # miss rate for WriteReq accesses
system.cpu3.dcache.LoadLockedReq_miss_rate::cpu3.data     0.237288                       # miss rate for LoadLockedReq accesses
system.cpu3.dcache.LoadLockedReq_miss_rate::total     0.237288                       # miss rate for LoadLockedReq accesses
system.cpu3.dcache.StoreCondReq_miss_rate::cpu3.data     0.613861                       # miss rate for StoreCondReq accesses
system.cpu3.dcache.StoreCondReq_miss_rate::total     0.613861                       # miss rate for StoreCondReq accesses
system.cpu3.dcache.demand_miss_rate::cpu3.data     0.005800                       # miss rate for demand accesses
system.cpu3.dcache.demand_miss_rate::total     0.005800                       # miss rate for demand accesses
system.cpu3.dcache.overall_miss_rate::cpu3.data     0.005800                       # miss rate for overall accesses
system.cpu3.dcache.overall_miss_rate::total     0.005800                       # miss rate for overall accesses
system.cpu3.dcache.ReadReq_avg_miss_latency::cpu3.data 15702.139989                       # average ReadReq miss latency
system.cpu3.dcache.ReadReq_avg_miss_latency::total 15702.139989                       # average ReadReq miss latency
system.cpu3.dcache.WriteReq_avg_miss_latency::cpu3.data 51345.885804                       # average WriteReq miss latency
system.cpu3.dcache.WriteReq_avg_miss_latency::total 51345.885804                       # average WriteReq miss latency
system.cpu3.dcache.LoadLockedReq_avg_miss_latency::cpu3.data  6857.142857                       # average LoadLockedReq miss latency
system.cpu3.dcache.LoadLockedReq_avg_miss_latency::total  6857.142857                       # average LoadLockedReq miss latency
system.cpu3.dcache.StoreCondReq_avg_miss_latency::cpu3.data 12241.935484                       # average StoreCondReq miss latency
system.cpu3.dcache.StoreCondReq_avg_miss_latency::total 12241.935484                       # average StoreCondReq miss latency
system.cpu3.dcache.demand_avg_miss_latency::cpu3.data 16532.451704                       # average overall miss latency
system.cpu3.dcache.demand_avg_miss_latency::total 16532.451704                       # average overall miss latency
system.cpu3.dcache.overall_avg_miss_latency::cpu3.data 16532.451704                       # average overall miss latency
system.cpu3.dcache.overall_avg_miss_latency::total 16532.451704                       # average overall miss latency
system.cpu3.dcache.blocked_cycles::no_mshrs            0                       # number of cycles access was blocked
system.cpu3.dcache.blocked_cycles::no_targets     70900000                       # number of cycles access was blocked
system.cpu3.dcache.blocked::no_mshrs                0                       # number of cycles access was blocked
system.cpu3.dcache.blocked::no_targets          10236                       # number of cycles access was blocked
system.cpu3.dcache.avg_blocked_cycles::no_mshrs          nan                       # average number of cycles each access was blocked
system.cpu3.dcache.avg_blocked_cycles::no_targets  6926.533802                       # average number of cycles each access was blocked
system.cpu3.dcache.fast_writes                      0                       # number of fast writes performed
system.cpu3.dcache.cache_copies                     0                       # number of cache copies performed
system.cpu3.dcache.writebacks::writebacks        22313                       # number of writebacks
system.cpu3.dcache.writebacks::total            22313                       # number of writebacks
system.cpu3.dcache.ReadReq_mshr_hits::cpu3.data       156750                       # number of ReadReq MSHR hits
system.cpu3.dcache.ReadReq_mshr_hits::total       156750                       # number of ReadReq MSHR hits
system.cpu3.dcache.WriteReq_mshr_hits::cpu3.data         4302                       # number of WriteReq MSHR hits
system.cpu3.dcache.WriteReq_mshr_hits::total         4302                       # number of WriteReq MSHR hits
system.cpu3.dcache.demand_mshr_hits::cpu3.data       161052                       # number of demand (read+write) MSHR hits
system.cpu3.dcache.demand_mshr_hits::total       161052                       # number of demand (read+write) MSHR hits
system.cpu3.dcache.overall_mshr_hits::cpu3.data       161052                       # number of overall MSHR hits
system.cpu3.dcache.overall_mshr_hits::total       161052                       # number of overall MSHR hits
system.cpu3.dcache.ReadReq_mshr_misses::cpu3.data        84840                       # number of ReadReq MSHR misses
system.cpu3.dcache.ReadReq_mshr_misses::total        84840                       # number of ReadReq MSHR misses
system.cpu3.dcache.WriteReq_mshr_misses::cpu3.data         1460                       # number of WriteReq MSHR misses
system.cpu3.dcache.WriteReq_mshr_misses::total         1460                       # number of WriteReq MSHR misses
system.cpu3.dcache.LoadLockedReq_mshr_misses::cpu3.data           28                       # number of LoadLockedReq MSHR misses
system.cpu3.dcache.LoadLockedReq_mshr_misses::total           28                       # number of LoadLockedReq MSHR misses
system.cpu3.dcache.StoreCondReq_mshr_misses::cpu3.data           62                       # number of StoreCondReq MSHR misses
system.cpu3.dcache.StoreCondReq_mshr_misses::total           62                       # number of StoreCondReq MSHR misses
system.cpu3.dcache.demand_mshr_misses::cpu3.data        86300                       # number of demand (read+write) MSHR misses
system.cpu3.dcache.demand_mshr_misses::total        86300                       # number of demand (read+write) MSHR misses
system.cpu3.dcache.overall_mshr_misses::cpu3.data        86300                       # number of overall MSHR misses
system.cpu3.dcache.overall_mshr_misses::total        86300                       # number of overall MSHR misses
system.cpu3.dcache.ReadReq_mshr_miss_latency::cpu3.data   1444227000                       # number of ReadReq MSHR miss cycles
system.cpu3.dcache.ReadReq_mshr_miss_latency::total   1444227000                       # number of ReadReq MSHR miss cycles
system.cpu3.dcache.WriteReq_mshr_miss_latency::cpu3.data     67203996                       # number of WriteReq MSHR miss cycles
system.cpu3.dcache.WriteReq_mshr_miss_latency::total     67203996                       # number of WriteReq MSHR miss cycles
system.cpu3.dcache.LoadLockedReq_mshr_miss_latency::cpu3.data       108000                       # number of LoadLockedReq MSHR miss cycles
system.cpu3.dcache.LoadLockedReq_mshr_miss_latency::total       108000                       # number of LoadLockedReq MSHR miss cycles
system.cpu3.dcache.StoreCondReq_mshr_miss_latency::cpu3.data       573000                       # number of StoreCondReq MSHR miss cycles
system.cpu3.dcache.StoreCondReq_mshr_miss_latency::total       573000                       # number of StoreCondReq MSHR miss cycles
system.cpu3.dcache.demand_mshr_miss_latency::cpu3.data   1511430996                       # number of demand (read+write) MSHR miss cycles
system.cpu3.dcache.demand_mshr_miss_latency::total   1511430996                       # number of demand (read+write) MSHR miss cycles
system.cpu3.dcache.overall_mshr_miss_latency::cpu3.data   1511430996                       # number of overall MSHR miss cycles
system.cpu3.dcache.overall_mshr_miss_latency::total   1511430996                       # number of overall MSHR miss cycles
system.cpu3.dcache.ReadReq_mshr_miss_rate::cpu3.data     0.002811                       # mshr miss rate for ReadReq accesses
system.cpu3.dcache.ReadReq_mshr_miss_rate::total     0.002811                       # mshr miss rate for ReadReq accesses
system.cpu3.dcache.WriteReq_mshr_miss_rate::cpu3.data     0.000117                       # mshr miss rate for WriteReq accesses
system.cpu3.dcache.WriteReq_mshr_miss_rate::total     0.000117                       # mshr miss rate for WriteReq accesses
system.cpu3.dcache.LoadLockedReq_mshr_miss_rate::cpu3.data     0.237288                       # mshr miss rate for LoadLockedReq accesses
system.cpu3.dcache.LoadLockedReq_mshr_miss_rate::total     0.237288                       # mshr miss rate for LoadLockedReq accesses
system.cpu3.dcache.StoreCondReq_mshr_miss_rate::cpu3.data     0.613861                       # mshr miss rate for StoreCondReq accesses
system.cpu3.dcache.StoreCondReq_mshr_miss_rate::total     0.613861                       # mshr miss rate for StoreCondReq accesses
system.cpu3.dcache.demand_mshr_miss_rate::cpu3.data     0.002024                       # mshr miss rate for demand accesses
system.cpu3.dcache.demand_mshr_miss_rate::total     0.002024                       # mshr miss rate for demand accesses
system.cpu3.dcache.overall_mshr_miss_rate::cpu3.data     0.002024                       # mshr miss rate for overall accesses
system.cpu3.dcache.overall_mshr_miss_rate::total     0.002024                       # mshr miss rate for overall accesses
system.cpu3.dcache.ReadReq_avg_mshr_miss_latency::cpu3.data 17022.949081                       # average ReadReq mshr miss latency
system.cpu3.dcache.ReadReq_avg_mshr_miss_latency::total 17022.949081                       # average ReadReq mshr miss latency
system.cpu3.dcache.WriteReq_avg_mshr_miss_latency::cpu3.data 46030.134247                       # average WriteReq mshr miss latency
system.cpu3.dcache.WriteReq_avg_mshr_miss_latency::total 46030.134247                       # average WriteReq mshr miss latency
system.cpu3.dcache.LoadLockedReq_avg_mshr_miss_latency::cpu3.data  3857.142857                       # average LoadLockedReq mshr miss latency
system.cpu3.dcache.LoadLockedReq_avg_mshr_miss_latency::total  3857.142857                       # average LoadLockedReq mshr miss latency
system.cpu3.dcache.StoreCondReq_avg_mshr_miss_latency::cpu3.data  9241.935484                       # average StoreCondReq mshr miss latency
system.cpu3.dcache.StoreCondReq_avg_mshr_miss_latency::total  9241.935484                       # average StoreCondReq mshr miss latency
system.cpu3.dcache.demand_avg_mshr_miss_latency::cpu3.data 17513.684774                       # average overall mshr miss latency
system.cpu3.dcache.demand_avg_mshr_miss_latency::total 17513.684774                       # average overall mshr miss latency
system.cpu3.dcache.overall_avg_mshr_miss_latency::cpu3.data 17513.684774                       # average overall mshr miss latency
system.cpu3.dcache.overall_avg_mshr_miss_latency::total 17513.684774                       # average overall mshr miss latency
system.cpu3.dcache.no_allocate_misses               0                       # Number of misses that were no-allocate

---------- End Simulation Statistics   ----------
