
---------- Begin Simulation Statistics ----------
sim_seconds                                  0.018711                       # Number of seconds simulated
sim_ticks                                 18711010000                       # Number of ticks simulated
final_tick                                18711010000                       # Number of ticks from beginning of simulation (restored from checkpoints and never reset)
sim_freq                                 1000000000000                       # Frequency of simulated ticks
host_inst_rate                                 156993                       # Simulator instruction rate (inst/s)
host_op_rate                                   156993                       # Simulator op (including micro ops) rate (op/s)
host_tick_rate                               50357115                       # Simulator tick rate (ticks/s)
host_mem_usage                                 369532                       # Number of bytes of host memory used
host_seconds                                   371.57                       # Real time elapsed on the host
sim_insts                                    58333252                       # Number of instructions simulated
sim_ops                                      58333252                       # Number of ops (including micro ops) simulated
system.physmem.bytes_read::cpu0.inst           175680                       # Number of bytes read from this memory
system.physmem.bytes_read::cpu0.data          5486976                       # Number of bytes read from this memory
system.physmem.bytes_read::cpu1.inst            21376                       # Number of bytes read from this memory
system.physmem.bytes_read::cpu1.data          3170560                       # Number of bytes read from this memory
system.physmem.bytes_read::cpu2.inst             9216                       # Number of bytes read from this memory
system.physmem.bytes_read::cpu2.data          3166080                       # Number of bytes read from this memory
system.physmem.bytes_read::cpu3.inst             4992                       # Number of bytes read from this memory
system.physmem.bytes_read::cpu3.data          3163776                       # Number of bytes read from this memory
system.physmem.bytes_read::total             15198656                       # Number of bytes read from this memory
system.physmem.bytes_inst_read::cpu0.inst       175680                       # Number of instructions bytes read from this memory
system.physmem.bytes_inst_read::cpu1.inst        21376                       # Number of instructions bytes read from this memory
system.physmem.bytes_inst_read::cpu2.inst         9216                       # Number of instructions bytes read from this memory
system.physmem.bytes_inst_read::cpu3.inst         4992                       # Number of instructions bytes read from this memory
system.physmem.bytes_inst_read::total          211264                       # Number of instructions bytes read from this memory
system.physmem.bytes_written::writebacks      7334848                       # Number of bytes written to this memory
system.physmem.bytes_written::total           7334848                       # Number of bytes written to this memory
system.physmem.num_reads::cpu0.inst              2745                       # Number of read requests responded to by this memory
system.physmem.num_reads::cpu0.data             85734                       # Number of read requests responded to by this memory
system.physmem.num_reads::cpu1.inst               334                       # Number of read requests responded to by this memory
system.physmem.num_reads::cpu1.data             49540                       # Number of read requests responded to by this memory
system.physmem.num_reads::cpu2.inst               144                       # Number of read requests responded to by this memory
system.physmem.num_reads::cpu2.data             49470                       # Number of read requests responded to by this memory
system.physmem.num_reads::cpu3.inst                78                       # Number of read requests responded to by this memory
system.physmem.num_reads::cpu3.data             49434                       # Number of read requests responded to by this memory
system.physmem.num_reads::total                237479                       # Number of read requests responded to by this memory
system.physmem.num_writes::writebacks          114607                       # Number of write requests responded to by this memory
system.physmem.num_writes::total               114607                       # Number of write requests responded to by this memory
system.physmem.bw_read::cpu0.inst             9389124                       # Total read bandwidth from this memory (bytes/s)
system.physmem.bw_read::cpu0.data           293248521                       # Total read bandwidth from this memory (bytes/s)
system.physmem.bw_read::cpu1.inst             1142429                       # Total read bandwidth from this memory (bytes/s)
system.physmem.bw_read::cpu1.data           169448897                       # Total read bandwidth from this memory (bytes/s)
system.physmem.bw_read::cpu2.inst              492544                       # Total read bandwidth from this memory (bytes/s)
system.physmem.bw_read::cpu2.data           169209465                       # Total read bandwidth from this memory (bytes/s)
system.physmem.bw_read::cpu3.inst              266795                       # Total read bandwidth from this memory (bytes/s)
system.physmem.bw_read::cpu3.data           169086329                       # Total read bandwidth from this memory (bytes/s)
system.physmem.bw_read::total               812284104                       # Total read bandwidth from this memory (bytes/s)
system.physmem.bw_inst_read::cpu0.inst        9389124                       # Instruction read bandwidth from this memory (bytes/s)
system.physmem.bw_inst_read::cpu1.inst        1142429                       # Instruction read bandwidth from this memory (bytes/s)
system.physmem.bw_inst_read::cpu2.inst         492544                       # Instruction read bandwidth from this memory (bytes/s)
system.physmem.bw_inst_read::cpu3.inst         266795                       # Instruction read bandwidth from this memory (bytes/s)
system.physmem.bw_inst_read::total           11290892                       # Instruction read bandwidth from this memory (bytes/s)
system.physmem.bw_write::writebacks         392007059                       # Write bandwidth from this memory (bytes/s)
system.physmem.bw_write::total              392007059                       # Write bandwidth from this memory (bytes/s)
system.physmem.bw_total::writebacks         392007059                       # Total bandwidth to/from this memory (bytes/s)
system.physmem.bw_total::cpu0.inst            9389124                       # Total bandwidth to/from this memory (bytes/s)
system.physmem.bw_total::cpu0.data          293248521                       # Total bandwidth to/from this memory (bytes/s)
system.physmem.bw_total::cpu1.inst            1142429                       # Total bandwidth to/from this memory (bytes/s)
system.physmem.bw_total::cpu1.data          169448897                       # Total bandwidth to/from this memory (bytes/s)
system.physmem.bw_total::cpu2.inst             492544                       # Total bandwidth to/from this memory (bytes/s)
system.physmem.bw_total::cpu2.data          169209465                       # Total bandwidth to/from this memory (bytes/s)
system.physmem.bw_total::cpu3.inst             266795                       # Total bandwidth to/from this memory (bytes/s)
system.physmem.bw_total::cpu3.data          169086329                       # Total bandwidth to/from this memory (bytes/s)
system.physmem.bw_total::total             1204291163                       # Total bandwidth to/from this memory (bytes/s)
workload.num_syscalls                             247                       # Number of system calls
system.l2.replacements                         237339                       # number of replacements
system.l2.tagsinuse                       2380.377963                       # Cycle average of tags in use
system.l2.total_refs                            36400                       # Total number of references to valid blocks.
system.l2.sampled_refs                         240402                       # Sample count of references to valid blocks.
system.l2.avg_refs                           0.151413                       # Average number of references to valid blocks.
system.l2.warmup_cycle                    15506507000                       # Cycle when the warmup percentage was hit.
system.l2.occ_blocks::writebacks          1723.363012                       # Average occupied blocks per requestor
system.l2.occ_blocks::cpu0.inst             81.226207                       # Average occupied blocks per requestor
system.l2.occ_blocks::cpu0.data            172.845944                       # Average occupied blocks per requestor
system.l2.occ_blocks::cpu1.inst              1.147394                       # Average occupied blocks per requestor
system.l2.occ_blocks::cpu1.data            128.644684                       # Average occupied blocks per requestor
system.l2.occ_blocks::cpu2.inst              0.475569                       # Average occupied blocks per requestor
system.l2.occ_blocks::cpu2.data            136.456441                       # Average occupied blocks per requestor
system.l2.occ_blocks::cpu3.inst              0.162955                       # Average occupied blocks per requestor
system.l2.occ_blocks::cpu3.data            136.055757                       # Average occupied blocks per requestor
system.l2.occ_percent::writebacks            0.420743                       # Average percentage of cache occupancy
system.l2.occ_percent::cpu0.inst             0.019831                       # Average percentage of cache occupancy
system.l2.occ_percent::cpu0.data             0.042199                       # Average percentage of cache occupancy
system.l2.occ_percent::cpu1.inst             0.000280                       # Average percentage of cache occupancy
system.l2.occ_percent::cpu1.data             0.031407                       # Average percentage of cache occupancy
system.l2.occ_percent::cpu2.inst             0.000116                       # Average percentage of cache occupancy
system.l2.occ_percent::cpu2.data             0.033315                       # Average percentage of cache occupancy
system.l2.occ_percent::cpu3.inst             0.000040                       # Average percentage of cache occupancy
system.l2.occ_percent::cpu3.data             0.033217                       # Average percentage of cache occupancy
system.l2.occ_percent::total                 0.581147                       # Average percentage of cache occupancy
system.l2.ReadReq_hits::cpu0.inst                3373                       # number of ReadReq hits
system.l2.ReadReq_hits::cpu0.data                 596                       # number of ReadReq hits
system.l2.ReadReq_hits::cpu1.inst                 760                       # number of ReadReq hits
system.l2.ReadReq_hits::cpu1.data                 295                       # number of ReadReq hits
system.l2.ReadReq_hits::cpu2.inst                 768                       # number of ReadReq hits
system.l2.ReadReq_hits::cpu2.data                 468                       # number of ReadReq hits
system.l2.ReadReq_hits::cpu3.inst                 630                       # number of ReadReq hits
system.l2.ReadReq_hits::cpu3.data                 355                       # number of ReadReq hits
system.l2.ReadReq_hits::total                    7245                       # number of ReadReq hits
system.l2.Writeback_hits::writebacks           116729                       # number of Writeback hits
system.l2.Writeback_hits::total                116729                       # number of Writeback hits
system.l2.UpgradeReq_hits::cpu0.data                4                       # number of UpgradeReq hits
system.l2.UpgradeReq_hits::cpu1.data                2                       # number of UpgradeReq hits
system.l2.UpgradeReq_hits::cpu2.data                2                       # number of UpgradeReq hits
system.l2.UpgradeReq_hits::cpu3.data                1                       # number of UpgradeReq hits
system.l2.UpgradeReq_hits::total                    9                       # number of UpgradeReq hits
system.l2.SCUpgradeReq_hits::cpu0.data              1                       # number of SCUpgradeReq hits
system.l2.SCUpgradeReq_hits::cpu2.data              2                       # number of SCUpgradeReq hits
system.l2.SCUpgradeReq_hits::cpu3.data              3                       # number of SCUpgradeReq hits
system.l2.SCUpgradeReq_hits::total                  6                       # number of SCUpgradeReq hits
system.l2.ReadExReq_hits::cpu0.data                66                       # number of ReadExReq hits
system.l2.ReadExReq_hits::cpu1.data                34                       # number of ReadExReq hits
system.l2.ReadExReq_hits::cpu2.data                25                       # number of ReadExReq hits
system.l2.ReadExReq_hits::cpu3.data                 9                       # number of ReadExReq hits
system.l2.ReadExReq_hits::total                   134                       # number of ReadExReq hits
system.l2.demand_hits::cpu0.inst                 3373                       # number of demand (read+write) hits
system.l2.demand_hits::cpu0.data                  662                       # number of demand (read+write) hits
system.l2.demand_hits::cpu1.inst                  760                       # number of demand (read+write) hits
system.l2.demand_hits::cpu1.data                  329                       # number of demand (read+write) hits
system.l2.demand_hits::cpu2.inst                  768                       # number of demand (read+write) hits
system.l2.demand_hits::cpu2.data                  493                       # number of demand (read+write) hits
system.l2.demand_hits::cpu3.inst                  630                       # number of demand (read+write) hits
system.l2.demand_hits::cpu3.data                  364                       # number of demand (read+write) hits
system.l2.demand_hits::total                     7379                       # number of demand (read+write) hits
system.l2.overall_hits::cpu0.inst                3373                       # number of overall hits
system.l2.overall_hits::cpu0.data                 662                       # number of overall hits
system.l2.overall_hits::cpu1.inst                 760                       # number of overall hits
system.l2.overall_hits::cpu1.data                 329                       # number of overall hits
system.l2.overall_hits::cpu2.inst                 768                       # number of overall hits
system.l2.overall_hits::cpu2.data                 493                       # number of overall hits
system.l2.overall_hits::cpu3.inst                 630                       # number of overall hits
system.l2.overall_hits::cpu3.data                 364                       # number of overall hits
system.l2.overall_hits::total                    7379                       # number of overall hits
system.l2.ReadReq_misses::cpu0.inst              2750                       # number of ReadReq misses
system.l2.ReadReq_misses::cpu0.data             38238                       # number of ReadReq misses
system.l2.ReadReq_misses::cpu1.inst               365                       # number of ReadReq misses
system.l2.ReadReq_misses::cpu1.data             37174                       # number of ReadReq misses
system.l2.ReadReq_misses::cpu2.inst               195                       # number of ReadReq misses
system.l2.ReadReq_misses::cpu2.data             37116                       # number of ReadReq misses
system.l2.ReadReq_misses::cpu3.inst                99                       # number of ReadReq misses
system.l2.ReadReq_misses::cpu3.data             37069                       # number of ReadReq misses
system.l2.ReadReq_misses::total                153006                       # number of ReadReq misses
system.l2.UpgradeReq_misses::cpu0.data              6                       # number of UpgradeReq misses
system.l2.UpgradeReq_misses::cpu1.data              1                       # number of UpgradeReq misses
system.l2.UpgradeReq_misses::total                  7                       # number of UpgradeReq misses
system.l2.SCUpgradeReq_misses::cpu0.data            4                       # number of SCUpgradeReq misses
system.l2.SCUpgradeReq_misses::cpu1.data            1                       # number of SCUpgradeReq misses
system.l2.SCUpgradeReq_misses::cpu2.data            1                       # number of SCUpgradeReq misses
system.l2.SCUpgradeReq_misses::cpu3.data            2                       # number of SCUpgradeReq misses
system.l2.SCUpgradeReq_misses::total                8                       # number of SCUpgradeReq misses
system.l2.ReadExReq_misses::cpu0.data           47506                       # number of ReadExReq misses
system.l2.ReadExReq_misses::cpu1.data           12380                       # number of ReadExReq misses
system.l2.ReadExReq_misses::cpu2.data           12376                       # number of ReadExReq misses
system.l2.ReadExReq_misses::cpu3.data           12383                       # number of ReadExReq misses
system.l2.ReadExReq_misses::total               84645                       # number of ReadExReq misses
system.l2.demand_misses::cpu0.inst               2750                       # number of demand (read+write) misses
system.l2.demand_misses::cpu0.data              85744                       # number of demand (read+write) misses
system.l2.demand_misses::cpu1.inst                365                       # number of demand (read+write) misses
system.l2.demand_misses::cpu1.data              49554                       # number of demand (read+write) misses
system.l2.demand_misses::cpu2.inst                195                       # number of demand (read+write) misses
system.l2.demand_misses::cpu2.data              49492                       # number of demand (read+write) misses
system.l2.demand_misses::cpu3.inst                 99                       # number of demand (read+write) misses
system.l2.demand_misses::cpu3.data              49452                       # number of demand (read+write) misses
system.l2.demand_misses::total                 237651                       # number of demand (read+write) misses
system.l2.overall_misses::cpu0.inst              2750                       # number of overall misses
system.l2.overall_misses::cpu0.data             85744                       # number of overall misses
system.l2.overall_misses::cpu1.inst               365                       # number of overall misses
system.l2.overall_misses::cpu1.data             49554                       # number of overall misses
system.l2.overall_misses::cpu2.inst               195                       # number of overall misses
system.l2.overall_misses::cpu2.data             49492                       # number of overall misses
system.l2.overall_misses::cpu3.inst                99                       # number of overall misses
system.l2.overall_misses::cpu3.data             49452                       # number of overall misses
system.l2.overall_misses::total                237651                       # number of overall misses
system.l2.ReadReq_miss_latency::cpu0.inst    143103000                       # number of ReadReq miss cycles
system.l2.ReadReq_miss_latency::cpu0.data   2022102000                       # number of ReadReq miss cycles
system.l2.ReadReq_miss_latency::cpu1.inst     18918000                       # number of ReadReq miss cycles
system.l2.ReadReq_miss_latency::cpu1.data   1965339000                       # number of ReadReq miss cycles
system.l2.ReadReq_miss_latency::cpu2.inst      9774000                       # number of ReadReq miss cycles
system.l2.ReadReq_miss_latency::cpu2.data   1963283000                       # number of ReadReq miss cycles
system.l2.ReadReq_miss_latency::cpu3.inst      4947000                       # number of ReadReq miss cycles
system.l2.ReadReq_miss_latency::cpu3.data   1960738000                       # number of ReadReq miss cycles
system.l2.ReadReq_miss_latency::total      8088204000                       # number of ReadReq miss cycles
system.l2.UpgradeReq_miss_latency::cpu0.data        52000                       # number of UpgradeReq miss cycles
system.l2.UpgradeReq_miss_latency::total        52000                       # number of UpgradeReq miss cycles
system.l2.ReadExReq_miss_latency::cpu0.data   2512087000                       # number of ReadExReq miss cycles
system.l2.ReadExReq_miss_latency::cpu1.data    674196000                       # number of ReadExReq miss cycles
system.l2.ReadExReq_miss_latency::cpu2.data    692366000                       # number of ReadExReq miss cycles
system.l2.ReadExReq_miss_latency::cpu3.data    690572000                       # number of ReadExReq miss cycles
system.l2.ReadExReq_miss_latency::total    4569221000                       # number of ReadExReq miss cycles
system.l2.demand_miss_latency::cpu0.inst    143103000                       # number of demand (read+write) miss cycles
system.l2.demand_miss_latency::cpu0.data   4534189000                       # number of demand (read+write) miss cycles
system.l2.demand_miss_latency::cpu1.inst     18918000                       # number of demand (read+write) miss cycles
system.l2.demand_miss_latency::cpu1.data   2639535000                       # number of demand (read+write) miss cycles
system.l2.demand_miss_latency::cpu2.inst      9774000                       # number of demand (read+write) miss cycles
system.l2.demand_miss_latency::cpu2.data   2655649000                       # number of demand (read+write) miss cycles
system.l2.demand_miss_latency::cpu3.inst      4947000                       # number of demand (read+write) miss cycles
system.l2.demand_miss_latency::cpu3.data   2651310000                       # number of demand (read+write) miss cycles
system.l2.demand_miss_latency::total      12657425000                       # number of demand (read+write) miss cycles
system.l2.overall_miss_latency::cpu0.inst    143103000                       # number of overall miss cycles
system.l2.overall_miss_latency::cpu0.data   4534189000                       # number of overall miss cycles
system.l2.overall_miss_latency::cpu1.inst     18918000                       # number of overall miss cycles
system.l2.overall_miss_latency::cpu1.data   2639535000                       # number of overall miss cycles
system.l2.overall_miss_latency::cpu2.inst      9774000                       # number of overall miss cycles
system.l2.overall_miss_latency::cpu2.data   2655649000                       # number of overall miss cycles
system.l2.overall_miss_latency::cpu3.inst      4947000                       # number of overall miss cycles
system.l2.overall_miss_latency::cpu3.data   2651310000                       # number of overall miss cycles
system.l2.overall_miss_latency::total     12657425000                       # number of overall miss cycles
system.l2.ReadReq_accesses::cpu0.inst            6123                       # number of ReadReq accesses(hits+misses)
system.l2.ReadReq_accesses::cpu0.data           38834                       # number of ReadReq accesses(hits+misses)
system.l2.ReadReq_accesses::cpu1.inst            1125                       # number of ReadReq accesses(hits+misses)
system.l2.ReadReq_accesses::cpu1.data           37469                       # number of ReadReq accesses(hits+misses)
system.l2.ReadReq_accesses::cpu2.inst             963                       # number of ReadReq accesses(hits+misses)
system.l2.ReadReq_accesses::cpu2.data           37584                       # number of ReadReq accesses(hits+misses)
system.l2.ReadReq_accesses::cpu3.inst             729                       # number of ReadReq accesses(hits+misses)
system.l2.ReadReq_accesses::cpu3.data           37424                       # number of ReadReq accesses(hits+misses)
system.l2.ReadReq_accesses::total              160251                       # number of ReadReq accesses(hits+misses)
system.l2.Writeback_accesses::writebacks       116729                       # number of Writeback accesses(hits+misses)
system.l2.Writeback_accesses::total            116729                       # number of Writeback accesses(hits+misses)
system.l2.UpgradeReq_accesses::cpu0.data           10                       # number of UpgradeReq accesses(hits+misses)
system.l2.UpgradeReq_accesses::cpu1.data            3                       # number of UpgradeReq accesses(hits+misses)
system.l2.UpgradeReq_accesses::cpu2.data            2                       # number of UpgradeReq accesses(hits+misses)
system.l2.UpgradeReq_accesses::cpu3.data            1                       # number of UpgradeReq accesses(hits+misses)
system.l2.UpgradeReq_accesses::total               16                       # number of UpgradeReq accesses(hits+misses)
system.l2.SCUpgradeReq_accesses::cpu0.data            5                       # number of SCUpgradeReq accesses(hits+misses)
system.l2.SCUpgradeReq_accesses::cpu1.data            1                       # number of SCUpgradeReq accesses(hits+misses)
system.l2.SCUpgradeReq_accesses::cpu2.data            3                       # number of SCUpgradeReq accesses(hits+misses)
system.l2.SCUpgradeReq_accesses::cpu3.data            5                       # number of SCUpgradeReq accesses(hits+misses)
system.l2.SCUpgradeReq_accesses::total             14                       # number of SCUpgradeReq accesses(hits+misses)
system.l2.ReadExReq_accesses::cpu0.data         47572                       # number of ReadExReq accesses(hits+misses)
system.l2.ReadExReq_accesses::cpu1.data         12414                       # number of ReadExReq accesses(hits+misses)
system.l2.ReadExReq_accesses::cpu2.data         12401                       # number of ReadExReq accesses(hits+misses)
system.l2.ReadExReq_accesses::cpu3.data         12392                       # number of ReadExReq accesses(hits+misses)
system.l2.ReadExReq_accesses::total             84779                       # number of ReadExReq accesses(hits+misses)
system.l2.demand_accesses::cpu0.inst             6123                       # number of demand (read+write) accesses
system.l2.demand_accesses::cpu0.data            86406                       # number of demand (read+write) accesses
system.l2.demand_accesses::cpu1.inst             1125                       # number of demand (read+write) accesses
system.l2.demand_accesses::cpu1.data            49883                       # number of demand (read+write) accesses
system.l2.demand_accesses::cpu2.inst              963                       # number of demand (read+write) accesses
system.l2.demand_accesses::cpu2.data            49985                       # number of demand (read+write) accesses
system.l2.demand_accesses::cpu3.inst              729                       # number of demand (read+write) accesses
system.l2.demand_accesses::cpu3.data            49816                       # number of demand (read+write) accesses
system.l2.demand_accesses::total               245030                       # number of demand (read+write) accesses
system.l2.overall_accesses::cpu0.inst            6123                       # number of overall (read+write) accesses
system.l2.overall_accesses::cpu0.data           86406                       # number of overall (read+write) accesses
system.l2.overall_accesses::cpu1.inst            1125                       # number of overall (read+write) accesses
system.l2.overall_accesses::cpu1.data           49883                       # number of overall (read+write) accesses
system.l2.overall_accesses::cpu2.inst             963                       # number of overall (read+write) accesses
system.l2.overall_accesses::cpu2.data           49985                       # number of overall (read+write) accesses
system.l2.overall_accesses::cpu3.inst             729                       # number of overall (read+write) accesses
system.l2.overall_accesses::cpu3.data           49816                       # number of overall (read+write) accesses
system.l2.overall_accesses::total              245030                       # number of overall (read+write) accesses
system.l2.ReadReq_miss_rate::cpu0.inst       0.449126                       # miss rate for ReadReq accesses
system.l2.ReadReq_miss_rate::cpu0.data       0.984653                       # miss rate for ReadReq accesses
system.l2.ReadReq_miss_rate::cpu1.inst       0.324444                       # miss rate for ReadReq accesses
system.l2.ReadReq_miss_rate::cpu1.data       0.992127                       # miss rate for ReadReq accesses
system.l2.ReadReq_miss_rate::cpu2.inst       0.202492                       # miss rate for ReadReq accesses
system.l2.ReadReq_miss_rate::cpu2.data       0.987548                       # miss rate for ReadReq accesses
system.l2.ReadReq_miss_rate::cpu3.inst       0.135802                       # miss rate for ReadReq accesses
system.l2.ReadReq_miss_rate::cpu3.data       0.990514                       # miss rate for ReadReq accesses
system.l2.ReadReq_miss_rate::total           0.954790                       # miss rate for ReadReq accesses
system.l2.UpgradeReq_miss_rate::cpu0.data     0.600000                       # miss rate for UpgradeReq accesses
system.l2.UpgradeReq_miss_rate::cpu1.data     0.333333                       # miss rate for UpgradeReq accesses
system.l2.UpgradeReq_miss_rate::total        0.437500                       # miss rate for UpgradeReq accesses
system.l2.SCUpgradeReq_miss_rate::cpu0.data     0.800000                       # miss rate for SCUpgradeReq accesses
system.l2.SCUpgradeReq_miss_rate::cpu1.data            1                       # miss rate for SCUpgradeReq accesses
system.l2.SCUpgradeReq_miss_rate::cpu2.data     0.333333                       # miss rate for SCUpgradeReq accesses
system.l2.SCUpgradeReq_miss_rate::cpu3.data     0.400000                       # miss rate for SCUpgradeReq accesses
system.l2.SCUpgradeReq_miss_rate::total      0.571429                       # miss rate for SCUpgradeReq accesses
system.l2.ReadExReq_miss_rate::cpu0.data     0.998613                       # miss rate for ReadExReq accesses
system.l2.ReadExReq_miss_rate::cpu1.data     0.997261                       # miss rate for ReadExReq accesses
system.l2.ReadExReq_miss_rate::cpu2.data     0.997984                       # miss rate for ReadExReq accesses
system.l2.ReadExReq_miss_rate::cpu3.data     0.999274                       # miss rate for ReadExReq accesses
system.l2.ReadExReq_miss_rate::total         0.998419                       # miss rate for ReadExReq accesses
system.l2.demand_miss_rate::cpu0.inst        0.449126                       # miss rate for demand accesses
system.l2.demand_miss_rate::cpu0.data        0.992338                       # miss rate for demand accesses
system.l2.demand_miss_rate::cpu1.inst        0.324444                       # miss rate for demand accesses
system.l2.demand_miss_rate::cpu1.data        0.993405                       # miss rate for demand accesses
system.l2.demand_miss_rate::cpu2.inst        0.202492                       # miss rate for demand accesses
system.l2.demand_miss_rate::cpu2.data        0.990137                       # miss rate for demand accesses
system.l2.demand_miss_rate::cpu3.inst        0.135802                       # miss rate for demand accesses
system.l2.demand_miss_rate::cpu3.data        0.992693                       # miss rate for demand accesses
system.l2.demand_miss_rate::total            0.969885                       # miss rate for demand accesses
system.l2.overall_miss_rate::cpu0.inst       0.449126                       # miss rate for overall accesses
system.l2.overall_miss_rate::cpu0.data       0.992338                       # miss rate for overall accesses
system.l2.overall_miss_rate::cpu1.inst       0.324444                       # miss rate for overall accesses
system.l2.overall_miss_rate::cpu1.data       0.993405                       # miss rate for overall accesses
system.l2.overall_miss_rate::cpu2.inst       0.202492                       # miss rate for overall accesses
system.l2.overall_miss_rate::cpu2.data       0.990137                       # miss rate for overall accesses
system.l2.overall_miss_rate::cpu3.inst       0.135802                       # miss rate for overall accesses
system.l2.overall_miss_rate::cpu3.data       0.992693                       # miss rate for overall accesses
system.l2.overall_miss_rate::total           0.969885                       # miss rate for overall accesses
system.l2.ReadReq_avg_miss_latency::cpu0.inst 52037.454545                       # average ReadReq miss latency
system.l2.ReadReq_avg_miss_latency::cpu0.data 52882.002197                       # average ReadReq miss latency
system.l2.ReadReq_avg_miss_latency::cpu1.inst 51830.136986                       # average ReadReq miss latency
system.l2.ReadReq_avg_miss_latency::cpu1.data 52868.644752                       # average ReadReq miss latency
system.l2.ReadReq_avg_miss_latency::cpu2.inst 50123.076923                       # average ReadReq miss latency
system.l2.ReadReq_avg_miss_latency::cpu2.data 52895.867012                       # average ReadReq miss latency
system.l2.ReadReq_avg_miss_latency::cpu3.inst 49969.696970                       # average ReadReq miss latency
system.l2.ReadReq_avg_miss_latency::cpu3.data 52894.278238                       # average ReadReq miss latency
system.l2.ReadReq_avg_miss_latency::total 52862.005412                       # average ReadReq miss latency
system.l2.UpgradeReq_avg_miss_latency::cpu0.data  8666.666667                       # average UpgradeReq miss latency
system.l2.UpgradeReq_avg_miss_latency::total  7428.571429                       # average UpgradeReq miss latency
system.l2.ReadExReq_avg_miss_latency::cpu0.data 52879.362607                       # average ReadExReq miss latency
system.l2.ReadExReq_avg_miss_latency::cpu1.data 54458.481422                       # average ReadExReq miss latency
system.l2.ReadExReq_avg_miss_latency::cpu2.data 55944.246930                       # average ReadExReq miss latency
system.l2.ReadExReq_avg_miss_latency::cpu3.data 55767.746104                       # average ReadExReq miss latency
system.l2.ReadExReq_avg_miss_latency::total 53980.991199                       # average ReadExReq miss latency
system.l2.demand_avg_miss_latency::cpu0.inst 52037.454545                       # average overall miss latency
system.l2.demand_avg_miss_latency::cpu0.data 52880.539746                       # average overall miss latency
system.l2.demand_avg_miss_latency::cpu1.inst 51830.136986                       # average overall miss latency
system.l2.demand_avg_miss_latency::cpu1.data 53265.831214                       # average overall miss latency
system.l2.demand_avg_miss_latency::cpu2.inst 50123.076923                       # average overall miss latency
system.l2.demand_avg_miss_latency::cpu2.data 53658.146771                       # average overall miss latency
system.l2.demand_avg_miss_latency::cpu3.inst 49969.696970                       # average overall miss latency
system.l2.demand_avg_miss_latency::cpu3.data 53613.807328                       # average overall miss latency
system.l2.demand_avg_miss_latency::total 53260.558550                       # average overall miss latency
system.l2.overall_avg_miss_latency::cpu0.inst 52037.454545                       # average overall miss latency
system.l2.overall_avg_miss_latency::cpu0.data 52880.539746                       # average overall miss latency
system.l2.overall_avg_miss_latency::cpu1.inst 51830.136986                       # average overall miss latency
system.l2.overall_avg_miss_latency::cpu1.data 53265.831214                       # average overall miss latency
system.l2.overall_avg_miss_latency::cpu2.inst 50123.076923                       # average overall miss latency
system.l2.overall_avg_miss_latency::cpu2.data 53658.146771                       # average overall miss latency
system.l2.overall_avg_miss_latency::cpu3.inst 49969.696970                       # average overall miss latency
system.l2.overall_avg_miss_latency::cpu3.data 53613.807328                       # average overall miss latency
system.l2.overall_avg_miss_latency::total 53260.558550                       # average overall miss latency
system.l2.blocked_cycles::no_mshrs                  0                       # number of cycles access was blocked
system.l2.blocked_cycles::no_targets                0                       # number of cycles access was blocked
system.l2.blocked::no_mshrs                         0                       # number of cycles access was blocked
system.l2.blocked::no_targets                       0                       # number of cycles access was blocked
system.l2.avg_blocked_cycles::no_mshrs            nan                       # average number of cycles each access was blocked
system.l2.avg_blocked_cycles::no_targets          nan                       # average number of cycles each access was blocked
system.l2.fast_writes                               0                       # number of fast writes performed
system.l2.cache_copies                              0                       # number of cache copies performed
system.l2.writebacks::writebacks               114607                       # number of writebacks
system.l2.writebacks::total                    114607                       # number of writebacks
system.l2.ReadReq_mshr_hits::cpu0.inst              5                       # number of ReadReq MSHR hits
system.l2.ReadReq_mshr_hits::cpu0.data              9                       # number of ReadReq MSHR hits
system.l2.ReadReq_mshr_hits::cpu1.inst             31                       # number of ReadReq MSHR hits
system.l2.ReadReq_mshr_hits::cpu1.data             14                       # number of ReadReq MSHR hits
system.l2.ReadReq_mshr_hits::cpu2.inst             51                       # number of ReadReq MSHR hits
system.l2.ReadReq_mshr_hits::cpu2.data             22                       # number of ReadReq MSHR hits
system.l2.ReadReq_mshr_hits::cpu3.inst             21                       # number of ReadReq MSHR hits
system.l2.ReadReq_mshr_hits::cpu3.data             18                       # number of ReadReq MSHR hits
system.l2.ReadReq_mshr_hits::total                171                       # number of ReadReq MSHR hits
system.l2.demand_mshr_hits::cpu0.inst               5                       # number of demand (read+write) MSHR hits
system.l2.demand_mshr_hits::cpu0.data               9                       # number of demand (read+write) MSHR hits
system.l2.demand_mshr_hits::cpu1.inst              31                       # number of demand (read+write) MSHR hits
system.l2.demand_mshr_hits::cpu1.data              14                       # number of demand (read+write) MSHR hits
system.l2.demand_mshr_hits::cpu2.inst              51                       # number of demand (read+write) MSHR hits
system.l2.demand_mshr_hits::cpu2.data              22                       # number of demand (read+write) MSHR hits
system.l2.demand_mshr_hits::cpu3.inst              21                       # number of demand (read+write) MSHR hits
system.l2.demand_mshr_hits::cpu3.data              18                       # number of demand (read+write) MSHR hits
system.l2.demand_mshr_hits::total                 171                       # number of demand (read+write) MSHR hits
system.l2.overall_mshr_hits::cpu0.inst              5                       # number of overall MSHR hits
system.l2.overall_mshr_hits::cpu0.data              9                       # number of overall MSHR hits
system.l2.overall_mshr_hits::cpu1.inst             31                       # number of overall MSHR hits
system.l2.overall_mshr_hits::cpu1.data             14                       # number of overall MSHR hits
system.l2.overall_mshr_hits::cpu2.inst             51                       # number of overall MSHR hits
system.l2.overall_mshr_hits::cpu2.data             22                       # number of overall MSHR hits
system.l2.overall_mshr_hits::cpu3.inst             21                       # number of overall MSHR hits
system.l2.overall_mshr_hits::cpu3.data             18                       # number of overall MSHR hits
system.l2.overall_mshr_hits::total                171                       # number of overall MSHR hits
system.l2.ReadReq_mshr_misses::cpu0.inst         2745                       # number of ReadReq MSHR misses
system.l2.ReadReq_mshr_misses::cpu0.data        38229                       # number of ReadReq MSHR misses
system.l2.ReadReq_mshr_misses::cpu1.inst          334                       # number of ReadReq MSHR misses
system.l2.ReadReq_mshr_misses::cpu1.data        37160                       # number of ReadReq MSHR misses
system.l2.ReadReq_mshr_misses::cpu2.inst          144                       # number of ReadReq MSHR misses
system.l2.ReadReq_mshr_misses::cpu2.data        37094                       # number of ReadReq MSHR misses
system.l2.ReadReq_mshr_misses::cpu3.inst           78                       # number of ReadReq MSHR misses
system.l2.ReadReq_mshr_misses::cpu3.data        37051                       # number of ReadReq MSHR misses
system.l2.ReadReq_mshr_misses::total           152835                       # number of ReadReq MSHR misses
system.l2.UpgradeReq_mshr_misses::cpu0.data            6                       # number of UpgradeReq MSHR misses
system.l2.UpgradeReq_mshr_misses::cpu1.data            1                       # number of UpgradeReq MSHR misses
system.l2.UpgradeReq_mshr_misses::total             7                       # number of UpgradeReq MSHR misses
system.l2.SCUpgradeReq_mshr_misses::cpu0.data            4                       # number of SCUpgradeReq MSHR misses
system.l2.SCUpgradeReq_mshr_misses::cpu1.data            1                       # number of SCUpgradeReq MSHR misses
system.l2.SCUpgradeReq_mshr_misses::cpu2.data            1                       # number of SCUpgradeReq MSHR misses
system.l2.SCUpgradeReq_mshr_misses::cpu3.data            2                       # number of SCUpgradeReq MSHR misses
system.l2.SCUpgradeReq_mshr_misses::total            8                       # number of SCUpgradeReq MSHR misses
system.l2.ReadExReq_mshr_misses::cpu0.data        47506                       # number of ReadExReq MSHR misses
system.l2.ReadExReq_mshr_misses::cpu1.data        12380                       # number of ReadExReq MSHR misses
system.l2.ReadExReq_mshr_misses::cpu2.data        12376                       # number of ReadExReq MSHR misses
system.l2.ReadExReq_mshr_misses::cpu3.data        12383                       # number of ReadExReq MSHR misses
system.l2.ReadExReq_mshr_misses::total          84645                       # number of ReadExReq MSHR misses
system.l2.demand_mshr_misses::cpu0.inst          2745                       # number of demand (read+write) MSHR misses
system.l2.demand_mshr_misses::cpu0.data         85735                       # number of demand (read+write) MSHR misses
system.l2.demand_mshr_misses::cpu1.inst           334                       # number of demand (read+write) MSHR misses
system.l2.demand_mshr_misses::cpu1.data         49540                       # number of demand (read+write) MSHR misses
system.l2.demand_mshr_misses::cpu2.inst           144                       # number of demand (read+write) MSHR misses
system.l2.demand_mshr_misses::cpu2.data         49470                       # number of demand (read+write) MSHR misses
system.l2.demand_mshr_misses::cpu3.inst            78                       # number of demand (read+write) MSHR misses
system.l2.demand_mshr_misses::cpu3.data         49434                       # number of demand (read+write) MSHR misses
system.l2.demand_mshr_misses::total            237480                       # number of demand (read+write) MSHR misses
system.l2.overall_mshr_misses::cpu0.inst         2745                       # number of overall MSHR misses
system.l2.overall_mshr_misses::cpu0.data        85735                       # number of overall MSHR misses
system.l2.overall_mshr_misses::cpu1.inst          334                       # number of overall MSHR misses
system.l2.overall_mshr_misses::cpu1.data        49540                       # number of overall MSHR misses
system.l2.overall_mshr_misses::cpu2.inst          144                       # number of overall MSHR misses
system.l2.overall_mshr_misses::cpu2.data        49470                       # number of overall MSHR misses
system.l2.overall_mshr_misses::cpu3.inst           78                       # number of overall MSHR misses
system.l2.overall_mshr_misses::cpu3.data        49434                       # number of overall MSHR misses
system.l2.overall_mshr_misses::total           237480                       # number of overall MSHR misses
system.l2.ReadReq_mshr_miss_latency::cpu0.inst    109988000                       # number of ReadReq MSHR miss cycles
system.l2.ReadReq_mshr_miss_latency::cpu0.data   1562959000                       # number of ReadReq MSHR miss cycles
system.l2.ReadReq_mshr_miss_latency::cpu1.inst     13461000                       # number of ReadReq MSHR miss cycles
system.l2.ReadReq_mshr_miss_latency::cpu1.data   1518880000                       # number of ReadReq MSHR miss cycles
system.l2.ReadReq_mshr_miss_latency::cpu2.inst      5812000                       # number of ReadReq MSHR miss cycles
system.l2.ReadReq_mshr_miss_latency::cpu2.data   1517324000                       # number of ReadReq MSHR miss cycles
system.l2.ReadReq_mshr_miss_latency::cpu3.inst      3150000                       # number of ReadReq MSHR miss cycles
system.l2.ReadReq_mshr_miss_latency::cpu3.data   1515308000                       # number of ReadReq MSHR miss cycles
system.l2.ReadReq_mshr_miss_latency::total   6246882000                       # number of ReadReq MSHR miss cycles
system.l2.UpgradeReq_mshr_miss_latency::cpu0.data       240000                       # number of UpgradeReq MSHR miss cycles
system.l2.UpgradeReq_mshr_miss_latency::cpu1.data        41000                       # number of UpgradeReq MSHR miss cycles
system.l2.UpgradeReq_mshr_miss_latency::total       281000                       # number of UpgradeReq MSHR miss cycles
system.l2.SCUpgradeReq_mshr_miss_latency::cpu0.data       160000                       # number of SCUpgradeReq MSHR miss cycles
system.l2.SCUpgradeReq_mshr_miss_latency::cpu1.data        42000                       # number of SCUpgradeReq MSHR miss cycles
system.l2.SCUpgradeReq_mshr_miss_latency::cpu2.data        40000                       # number of SCUpgradeReq MSHR miss cycles
system.l2.SCUpgradeReq_mshr_miss_latency::cpu3.data        80000                       # number of SCUpgradeReq MSHR miss cycles
system.l2.SCUpgradeReq_mshr_miss_latency::total       322000                       # number of SCUpgradeReq MSHR miss cycles
system.l2.ReadExReq_mshr_miss_latency::cpu0.data   1942015000                       # number of ReadExReq MSHR miss cycles
system.l2.ReadExReq_mshr_miss_latency::cpu1.data    525636000                       # number of ReadExReq MSHR miss cycles
system.l2.ReadExReq_mshr_miss_latency::cpu2.data    543854000                       # number of ReadExReq MSHR miss cycles
system.l2.ReadExReq_mshr_miss_latency::cpu3.data    541976000                       # number of ReadExReq MSHR miss cycles
system.l2.ReadExReq_mshr_miss_latency::total   3553481000                       # number of ReadExReq MSHR miss cycles
system.l2.demand_mshr_miss_latency::cpu0.inst    109988000                       # number of demand (read+write) MSHR miss cycles
system.l2.demand_mshr_miss_latency::cpu0.data   3504974000                       # number of demand (read+write) MSHR miss cycles
system.l2.demand_mshr_miss_latency::cpu1.inst     13461000                       # number of demand (read+write) MSHR miss cycles
system.l2.demand_mshr_miss_latency::cpu1.data   2044516000                       # number of demand (read+write) MSHR miss cycles
system.l2.demand_mshr_miss_latency::cpu2.inst      5812000                       # number of demand (read+write) MSHR miss cycles
system.l2.demand_mshr_miss_latency::cpu2.data   2061178000                       # number of demand (read+write) MSHR miss cycles
system.l2.demand_mshr_miss_latency::cpu3.inst      3150000                       # number of demand (read+write) MSHR miss cycles
system.l2.demand_mshr_miss_latency::cpu3.data   2057284000                       # number of demand (read+write) MSHR miss cycles
system.l2.demand_mshr_miss_latency::total   9800363000                       # number of demand (read+write) MSHR miss cycles
system.l2.overall_mshr_miss_latency::cpu0.inst    109988000                       # number of overall MSHR miss cycles
system.l2.overall_mshr_miss_latency::cpu0.data   3504974000                       # number of overall MSHR miss cycles
system.l2.overall_mshr_miss_latency::cpu1.inst     13461000                       # number of overall MSHR miss cycles
system.l2.overall_mshr_miss_latency::cpu1.data   2044516000                       # number of overall MSHR miss cycles
system.l2.overall_mshr_miss_latency::cpu2.inst      5812000                       # number of overall MSHR miss cycles
system.l2.overall_mshr_miss_latency::cpu2.data   2061178000                       # number of overall MSHR miss cycles
system.l2.overall_mshr_miss_latency::cpu3.inst      3150000                       # number of overall MSHR miss cycles
system.l2.overall_mshr_miss_latency::cpu3.data   2057284000                       # number of overall MSHR miss cycles
system.l2.overall_mshr_miss_latency::total   9800363000                       # number of overall MSHR miss cycles
system.l2.ReadReq_mshr_miss_rate::cpu0.inst     0.448310                       # mshr miss rate for ReadReq accesses
system.l2.ReadReq_mshr_miss_rate::cpu0.data     0.984421                       # mshr miss rate for ReadReq accesses
system.l2.ReadReq_mshr_miss_rate::cpu1.inst     0.296889                       # mshr miss rate for ReadReq accesses
system.l2.ReadReq_mshr_miss_rate::cpu1.data     0.991753                       # mshr miss rate for ReadReq accesses
system.l2.ReadReq_mshr_miss_rate::cpu2.inst     0.149533                       # mshr miss rate for ReadReq accesses
system.l2.ReadReq_mshr_miss_rate::cpu2.data     0.986963                       # mshr miss rate for ReadReq accesses
system.l2.ReadReq_mshr_miss_rate::cpu3.inst     0.106996                       # mshr miss rate for ReadReq accesses
system.l2.ReadReq_mshr_miss_rate::cpu3.data     0.990033                       # mshr miss rate for ReadReq accesses
system.l2.ReadReq_mshr_miss_rate::total      0.953723                       # mshr miss rate for ReadReq accesses
system.l2.UpgradeReq_mshr_miss_rate::cpu0.data     0.600000                       # mshr miss rate for UpgradeReq accesses
system.l2.UpgradeReq_mshr_miss_rate::cpu1.data     0.333333                       # mshr miss rate for UpgradeReq accesses
system.l2.UpgradeReq_mshr_miss_rate::total     0.437500                       # mshr miss rate for UpgradeReq accesses
system.l2.SCUpgradeReq_mshr_miss_rate::cpu0.data     0.800000                       # mshr miss rate for SCUpgradeReq accesses
system.l2.SCUpgradeReq_mshr_miss_rate::cpu1.data            1                       # mshr miss rate for SCUpgradeReq accesses
system.l2.SCUpgradeReq_mshr_miss_rate::cpu2.data     0.333333                       # mshr miss rate for SCUpgradeReq accesses
system.l2.SCUpgradeReq_mshr_miss_rate::cpu3.data     0.400000                       # mshr miss rate for SCUpgradeReq accesses
system.l2.SCUpgradeReq_mshr_miss_rate::total     0.571429                       # mshr miss rate for SCUpgradeReq accesses
system.l2.ReadExReq_mshr_miss_rate::cpu0.data     0.998613                       # mshr miss rate for ReadExReq accesses
system.l2.ReadExReq_mshr_miss_rate::cpu1.data     0.997261                       # mshr miss rate for ReadExReq accesses
system.l2.ReadExReq_mshr_miss_rate::cpu2.data     0.997984                       # mshr miss rate for ReadExReq accesses
system.l2.ReadExReq_mshr_miss_rate::cpu3.data     0.999274                       # mshr miss rate for ReadExReq accesses
system.l2.ReadExReq_mshr_miss_rate::total     0.998419                       # mshr miss rate for ReadExReq accesses
system.l2.demand_mshr_miss_rate::cpu0.inst     0.448310                       # mshr miss rate for demand accesses
system.l2.demand_mshr_miss_rate::cpu0.data     0.992234                       # mshr miss rate for demand accesses
system.l2.demand_mshr_miss_rate::cpu1.inst     0.296889                       # mshr miss rate for demand accesses
system.l2.demand_mshr_miss_rate::cpu1.data     0.993124                       # mshr miss rate for demand accesses
system.l2.demand_mshr_miss_rate::cpu2.inst     0.149533                       # mshr miss rate for demand accesses
system.l2.demand_mshr_miss_rate::cpu2.data     0.989697                       # mshr miss rate for demand accesses
system.l2.demand_mshr_miss_rate::cpu3.inst     0.106996                       # mshr miss rate for demand accesses
system.l2.demand_mshr_miss_rate::cpu3.data     0.992332                       # mshr miss rate for demand accesses
system.l2.demand_mshr_miss_rate::total       0.969187                       # mshr miss rate for demand accesses
system.l2.overall_mshr_miss_rate::cpu0.inst     0.448310                       # mshr miss rate for overall accesses
system.l2.overall_mshr_miss_rate::cpu0.data     0.992234                       # mshr miss rate for overall accesses
system.l2.overall_mshr_miss_rate::cpu1.inst     0.296889                       # mshr miss rate for overall accesses
system.l2.overall_mshr_miss_rate::cpu1.data     0.993124                       # mshr miss rate for overall accesses
system.l2.overall_mshr_miss_rate::cpu2.inst     0.149533                       # mshr miss rate for overall accesses
system.l2.overall_mshr_miss_rate::cpu2.data     0.989697                       # mshr miss rate for overall accesses
system.l2.overall_mshr_miss_rate::cpu3.inst     0.106996                       # mshr miss rate for overall accesses
system.l2.overall_mshr_miss_rate::cpu3.data     0.992332                       # mshr miss rate for overall accesses
system.l2.overall_mshr_miss_rate::total      0.969187                       # mshr miss rate for overall accesses
system.l2.ReadReq_avg_mshr_miss_latency::cpu0.inst 40068.488160                       # average ReadReq mshr miss latency
system.l2.ReadReq_avg_mshr_miss_latency::cpu0.data 40884.119386                       # average ReadReq mshr miss latency
system.l2.ReadReq_avg_mshr_miss_latency::cpu1.inst 40302.395210                       # average ReadReq mshr miss latency
system.l2.ReadReq_avg_mshr_miss_latency::cpu1.data 40874.058127                       # average ReadReq mshr miss latency
system.l2.ReadReq_avg_mshr_miss_latency::cpu2.inst 40361.111111                       # average ReadReq mshr miss latency
system.l2.ReadReq_avg_mshr_miss_latency::cpu2.data 40904.836362                       # average ReadReq mshr miss latency
system.l2.ReadReq_avg_mshr_miss_latency::cpu3.inst 40384.615385                       # average ReadReq mshr miss latency
system.l2.ReadReq_avg_mshr_miss_latency::cpu3.data 40897.897493                       # average ReadReq mshr miss latency
system.l2.ReadReq_avg_mshr_miss_latency::total 40873.373246                       # average ReadReq mshr miss latency
system.l2.UpgradeReq_avg_mshr_miss_latency::cpu0.data        40000                       # average UpgradeReq mshr miss latency
system.l2.UpgradeReq_avg_mshr_miss_latency::cpu1.data        41000                       # average UpgradeReq mshr miss latency
system.l2.UpgradeReq_avg_mshr_miss_latency::total 40142.857143                       # average UpgradeReq mshr miss latency
system.l2.SCUpgradeReq_avg_mshr_miss_latency::cpu0.data        40000                       # average SCUpgradeReq mshr miss latency
system.l2.SCUpgradeReq_avg_mshr_miss_latency::cpu1.data        42000                       # average SCUpgradeReq mshr miss latency
system.l2.SCUpgradeReq_avg_mshr_miss_latency::cpu2.data        40000                       # average SCUpgradeReq mshr miss latency
system.l2.SCUpgradeReq_avg_mshr_miss_latency::cpu3.data        40000                       # average SCUpgradeReq mshr miss latency
system.l2.SCUpgradeReq_avg_mshr_miss_latency::total        40250                       # average SCUpgradeReq mshr miss latency
system.l2.ReadExReq_avg_mshr_miss_latency::cpu0.data 40879.362607                       # average ReadExReq mshr miss latency
system.l2.ReadExReq_avg_mshr_miss_latency::cpu1.data 42458.481422                       # average ReadExReq mshr miss latency
system.l2.ReadExReq_avg_mshr_miss_latency::cpu2.data 43944.246930                       # average ReadExReq mshr miss latency
system.l2.ReadExReq_avg_mshr_miss_latency::cpu3.data 43767.746104                       # average ReadExReq mshr miss latency
system.l2.ReadExReq_avg_mshr_miss_latency::total 41980.991199                       # average ReadExReq mshr miss latency
system.l2.demand_avg_mshr_miss_latency::cpu0.inst 40068.488160                       # average overall mshr miss latency
system.l2.demand_avg_mshr_miss_latency::cpu0.data 40881.483641                       # average overall mshr miss latency
system.l2.demand_avg_mshr_miss_latency::cpu1.inst 40302.395210                       # average overall mshr miss latency
system.l2.demand_avg_mshr_miss_latency::cpu1.data 41270.004037                       # average overall mshr miss latency
system.l2.demand_avg_mshr_miss_latency::cpu2.inst 40361.111111                       # average overall mshr miss latency
system.l2.demand_avg_mshr_miss_latency::cpu2.data 41665.211239                       # average overall mshr miss latency
system.l2.demand_avg_mshr_miss_latency::cpu3.inst 40384.615385                       # average overall mshr miss latency
system.l2.demand_avg_mshr_miss_latency::cpu3.data 41616.781972                       # average overall mshr miss latency
system.l2.demand_avg_mshr_miss_latency::total 41268.161529                       # average overall mshr miss latency
system.l2.overall_avg_mshr_miss_latency::cpu0.inst 40068.488160                       # average overall mshr miss latency
system.l2.overall_avg_mshr_miss_latency::cpu0.data 40881.483641                       # average overall mshr miss latency
system.l2.overall_avg_mshr_miss_latency::cpu1.inst 40302.395210                       # average overall mshr miss latency
system.l2.overall_avg_mshr_miss_latency::cpu1.data 41270.004037                       # average overall mshr miss latency
system.l2.overall_avg_mshr_miss_latency::cpu2.inst 40361.111111                       # average overall mshr miss latency
system.l2.overall_avg_mshr_miss_latency::cpu2.data 41665.211239                       # average overall mshr miss latency
system.l2.overall_avg_mshr_miss_latency::cpu3.inst 40384.615385                       # average overall mshr miss latency
system.l2.overall_avg_mshr_miss_latency::cpu3.data 41616.781972                       # average overall mshr miss latency
system.l2.overall_avg_mshr_miss_latency::total 41268.161529                       # average overall mshr miss latency
system.l2.no_allocate_misses                        0                       # Number of misses that were no-allocate
system.cpu0.dtb.fetch_hits                          0                       # ITB hits
system.cpu0.dtb.fetch_misses                        0                       # ITB misses
system.cpu0.dtb.fetch_acv                           0                       # ITB acv
system.cpu0.dtb.fetch_accesses                      0                       # ITB accesses
system.cpu0.dtb.read_hits                     7331655                       # DTB read hits
system.cpu0.dtb.read_misses                      9631                       # DTB read misses
system.cpu0.dtb.read_acv                            0                       # DTB read access violations
system.cpu0.dtb.read_accesses                 7341286                       # DTB read accesses
system.cpu0.dtb.write_hits                    3533123                       # DTB write hits
system.cpu0.dtb.write_misses                     4499                       # DTB write misses
system.cpu0.dtb.write_acv                           0                       # DTB write access violations
system.cpu0.dtb.write_accesses                3537622                       # DTB write accesses
system.cpu0.dtb.data_hits                    10864778                       # DTB hits
system.cpu0.dtb.data_misses                     14130                       # DTB misses
system.cpu0.dtb.data_acv                            0                       # DTB access violations
system.cpu0.dtb.data_accesses                10878908                       # DTB accesses
system.cpu0.itb.fetch_hits                    4783268                       # ITB hits
system.cpu0.itb.fetch_misses                      210                       # ITB misses
system.cpu0.itb.fetch_acv                           0                       # ITB acv
system.cpu0.itb.fetch_accesses                4783478                       # ITB accesses
system.cpu0.itb.read_hits                           0                       # DTB read hits
system.cpu0.itb.read_misses                         0                       # DTB read misses
system.cpu0.itb.read_acv                            0                       # DTB read access violations
system.cpu0.itb.read_accesses                       0                       # DTB read accesses
system.cpu0.itb.write_hits                          0                       # DTB write hits
system.cpu0.itb.write_misses                        0                       # DTB write misses
system.cpu0.itb.write_acv                           0                       # DTB write access violations
system.cpu0.itb.write_accesses                      0                       # DTB write accesses
system.cpu0.itb.data_hits                           0                       # DTB hits
system.cpu0.itb.data_misses                         0                       # DTB misses
system.cpu0.itb.data_acv                            0                       # DTB access violations
system.cpu0.itb.data_accesses                       0                       # DTB accesses
system.cpu0.numCycles                        18688091                       # number of cpu cycles simulated
system.cpu0.numWorkItemsStarted                     0                       # number of work items this cpu started
system.cpu0.numWorkItemsCompleted                   0                       # number of work items this cpu completed
system.cpu0.BPredUnit.lookups                 3285923                       # Number of BP lookups
system.cpu0.BPredUnit.condPredicted           1552538                       # Number of conditional branches predicted
system.cpu0.BPredUnit.condIncorrect             17236                       # Number of conditional branches incorrect
system.cpu0.BPredUnit.BTBLookups              2063373                       # Number of BTB lookups
system.cpu0.BPredUnit.BTBHits                 1893568                       # Number of BTB hits
system.cpu0.BPredUnit.BTBCorrect                    0                       # Number of correct BTB predictions (this stat may not work properly.
system.cpu0.BPredUnit.usedRAS                  862963                       # Number of times the RAS was used to get a target.
system.cpu0.BPredUnit.RASInCorrect                659                       # Number of incorrect RAS predictions.
system.cpu0.fetch.icacheStallCycles             99365                       # Number of cycles fetch is stalled on an Icache miss
system.cpu0.fetch.Insts                      42084215                       # Number of instructions fetch has processed
system.cpu0.fetch.Branches                    3285923                       # Number of branches that fetch encountered
system.cpu0.fetch.predictedBranches           2756531                       # Number of branches that fetch has predicted taken
system.cpu0.fetch.Cycles                      6964080                       # Number of cycles fetch has run and was not squashing or blocked
system.cpu0.fetch.SquashCycles                 116467                       # Number of cycles fetch has spent squashing
system.cpu0.fetch.BlockedCycles              11463841                       # Number of cycles fetch has spent blocked
system.cpu0.fetch.MiscStallCycles                 100                       # Number of cycles fetch has spent waiting on interrupts, or bad addresses, or out of MSHRs
system.cpu0.fetch.PendingTrapStallCycles         3700                       # Number of stall cycles due to pending traps
system.cpu0.fetch.CacheLines                  4783268                       # Number of cache lines fetched
system.cpu0.fetch.IcacheSquashes                 3152                       # Number of outstanding Icache misses that were squashed
system.cpu0.fetch.rateDist::samples          18626812                       # Number of instructions fetched each cycle (Total)
system.cpu0.fetch.rateDist::mean             2.259335                       # Number of instructions fetched each cycle (Total)
system.cpu0.fetch.rateDist::stdev            3.239154                       # Number of instructions fetched each cycle (Total)
system.cpu0.fetch.rateDist::underflows              0      0.00%      0.00% # Number of instructions fetched each cycle (Total)
system.cpu0.fetch.rateDist::0                11662732     62.61%     62.61% # Number of instructions fetched each cycle (Total)
system.cpu0.fetch.rateDist::1                  394562      2.12%     64.73% # Number of instructions fetched each cycle (Total)
system.cpu0.fetch.rateDist::2                  289704      1.56%     66.29% # Number of instructions fetched each cycle (Total)
system.cpu0.fetch.rateDist::3                  250535      1.35%     67.63% # Number of instructions fetched each cycle (Total)
system.cpu0.fetch.rateDist::4                 1274270      6.84%     74.47% # Number of instructions fetched each cycle (Total)
system.cpu0.fetch.rateDist::5                  421962      2.27%     76.74% # Number of instructions fetched each cycle (Total)
system.cpu0.fetch.rateDist::6                  572941      3.08%     79.81% # Number of instructions fetched each cycle (Total)
system.cpu0.fetch.rateDist::7                  366744      1.97%     81.78% # Number of instructions fetched each cycle (Total)
system.cpu0.fetch.rateDist::8                 3393362     18.22%    100.00% # Number of instructions fetched each cycle (Total)
system.cpu0.fetch.rateDist::overflows               0      0.00%    100.00% # Number of instructions fetched each cycle (Total)
system.cpu0.fetch.rateDist::min_value               0                       # Number of instructions fetched each cycle (Total)
system.cpu0.fetch.rateDist::max_value               8                       # Number of instructions fetched each cycle (Total)
system.cpu0.fetch.rateDist::total            18626812                       # Number of instructions fetched each cycle (Total)
system.cpu0.fetch.branchRate                 0.175830                       # Number of branch fetches per cycle
system.cpu0.fetch.rate                       2.251927                       # Number of inst fetches per cycle
system.cpu0.decode.IdleCycles                  991593                       # Number of cycles decode is idle
system.cpu0.decode.BlockedCycles             10592214                       # Number of cycles decode is blocked
system.cpu0.decode.RunCycles                  6105255                       # Number of cycles decode is running
system.cpu0.decode.UnblockCycles               843491                       # Number of cycles decode is unblocking
system.cpu0.decode.SquashCycles                 94259                       # Number of cycles decode is squashing
system.cpu0.decode.BranchResolved              736274                       # Number of times decode resolved a branch
system.cpu0.decode.BranchMispred                 1515                       # Number of times decode detected a branch misprediction
system.cpu0.decode.DecodedInsts              41985185                       # Number of instructions handled by decode
system.cpu0.decode.SquashedInsts                 6241                       # Number of squashed instructions handled by decode
system.cpu0.rename.SquashCycles                 94259                       # Number of cycles rename is squashing
system.cpu0.rename.IdleCycles                 1747477                       # Number of cycles rename is idle
system.cpu0.rename.BlockCycles                1378874                       # Number of cycles rename is blocking
system.cpu0.rename.serializeStallCycles       7146500                       # count of cycles rename stalled for serializing inst
system.cpu0.rename.RunCycles                  6180780                       # Number of cycles rename is running
system.cpu0.rename.UnblockCycles              2078922                       # Number of cycles rename is unblocking
system.cpu0.rename.RenamedInsts              41891122                       # Number of instructions processed by rename
system.cpu0.rename.ROBFullEvents                15144                       # Number of times rename has blocked due to ROB full
system.cpu0.rename.IQFullEvents                 99505                       # Number of times rename has blocked due to IQ full
system.cpu0.rename.LSQFullEvents              1297534                       # Number of times rename has blocked due to LSQ full
system.cpu0.rename.RenamedOperands           32913524                       # Number of destination operands rename has renamed
system.cpu0.rename.RenameLookups             55904634                       # Number of register rename lookups that rename has made
system.cpu0.rename.int_rename_lookups        38149533                       # Number of integer rename lookups
system.cpu0.rename.fp_rename_lookups         17755101                       # Number of floating rename lookups
system.cpu0.rename.CommittedMaps             32287643                       # Number of HB maps that are committed
system.cpu0.rename.UndoneMaps                  625881                       # Number of HB maps that are undone due to squashing
system.cpu0.rename.serializingInsts            132420                       # count of serializing insts renamed
system.cpu0.rename.tempSerializingInsts           960                       # count of temporary serializing insts renamed
system.cpu0.rename.skidInsts                  8576278                       # count of insts added to the skid buffer
system.cpu0.memDep0.insertedLoads             7376923                       # Number of loads inserted to the mem dependence unit.
system.cpu0.memDep0.insertedStores            3580810                       # Number of stores inserted to the mem dependence unit.
system.cpu0.memDep0.conflictingLoads          1421054                       # Number of conflicting loads.
system.cpu0.memDep0.conflictingStores          270026                       # Number of conflicting stores.
system.cpu0.iq.iqInstsAdded                  39032860                       # Number of instructions added to the IQ (excludes non-spec)
system.cpu0.iq.iqNonSpecInstsAdded               1484                       # Number of non-speculative instructions added to the IQ
system.cpu0.iq.iqInstsIssued                 38825128                       # Number of instructions issued
system.cpu0.iq.iqSquashedInstsIssued            27957                       # Number of squashed instructions issued
system.cpu0.iq.iqSquashedInstsExamined         683776                       # Number of squashed instructions iterated over during squash; mainly for profiling
system.cpu0.iq.iqSquashedOperandsExamined       394838                       # Number of squashed operands that are examined and possibly removed from graph
system.cpu0.iq.iqSquashedNonSpecRemoved           323                       # Number of squashed non-spec instructions that were removed
system.cpu0.iq.issued_per_cycle::samples     18626812                       # Number of insts issued each cycle
system.cpu0.iq.issued_per_cycle::mean        2.084368                       # Number of insts issued each cycle
system.cpu0.iq.issued_per_cycle::stdev       1.915585                       # Number of insts issued each cycle
system.cpu0.iq.issued_per_cycle::underflows            0      0.00%      0.00% # Number of insts issued each cycle
system.cpu0.iq.issued_per_cycle::0            5544204     29.76%     29.76% # Number of insts issued each cycle
system.cpu0.iq.issued_per_cycle::1            2759203     14.81%     44.58% # Number of insts issued each cycle
system.cpu0.iq.issued_per_cycle::2            3026362     16.25%     60.83% # Number of insts issued each cycle
system.cpu0.iq.issued_per_cycle::3            2883358     15.48%     76.30% # Number of insts issued each cycle
system.cpu0.iq.issued_per_cycle::4            2312731     12.42%     88.72% # Number of insts issued each cycle
system.cpu0.iq.issued_per_cycle::5            1048511      5.63%     94.35% # Number of insts issued each cycle
system.cpu0.iq.issued_per_cycle::6             568512      3.05%     97.40% # Number of insts issued each cycle
system.cpu0.iq.issued_per_cycle::7             412872      2.22%     99.62% # Number of insts issued each cycle
system.cpu0.iq.issued_per_cycle::8              71059      0.38%    100.00% # Number of insts issued each cycle
system.cpu0.iq.issued_per_cycle::overflows            0      0.00%    100.00% # Number of insts issued each cycle
system.cpu0.iq.issued_per_cycle::min_value            0                       # Number of insts issued each cycle
system.cpu0.iq.issued_per_cycle::max_value            8                       # Number of insts issued each cycle
system.cpu0.iq.issued_per_cycle::total       18626812                       # Number of insts issued each cycle
system.cpu0.iq.fu_full::No_OpClass                  0      0.00%      0.00% # attempts to use FU when none available
system.cpu0.iq.fu_full::IntAlu                  64509      8.83%      8.83% # attempts to use FU when none available
system.cpu0.iq.fu_full::IntMult                262149     35.89%     44.72% # attempts to use FU when none available
system.cpu0.iq.fu_full::IntDiv                      0      0.00%     44.72% # attempts to use FU when none available
system.cpu0.iq.fu_full::FloatAdd                 4406      0.60%     45.32% # attempts to use FU when none available
system.cpu0.iq.fu_full::FloatCmp                    0      0.00%     45.32% # attempts to use FU when none available
system.cpu0.iq.fu_full::FloatCvt                    0      0.00%     45.32% # attempts to use FU when none available
system.cpu0.iq.fu_full::FloatMult              292586     40.05%     85.37% # attempts to use FU when none available
system.cpu0.iq.fu_full::FloatDiv                    1      0.00%     85.37% # attempts to use FU when none available
system.cpu0.iq.fu_full::FloatSqrt                   0      0.00%     85.37% # attempts to use FU when none available
system.cpu0.iq.fu_full::SimdAdd                     0      0.00%     85.37% # attempts to use FU when none available
system.cpu0.iq.fu_full::SimdAddAcc                  0      0.00%     85.37% # attempts to use FU when none available
system.cpu0.iq.fu_full::SimdAlu                     0      0.00%     85.37% # attempts to use FU when none available
system.cpu0.iq.fu_full::SimdCmp                     0      0.00%     85.37% # attempts to use FU when none available
system.cpu0.iq.fu_full::SimdCvt                     0      0.00%     85.37% # attempts to use FU when none available
system.cpu0.iq.fu_full::SimdMisc                    0      0.00%     85.37% # attempts to use FU when none available
system.cpu0.iq.fu_full::SimdMult                    0      0.00%     85.37% # attempts to use FU when none available
system.cpu0.iq.fu_full::SimdMultAcc                 0      0.00%     85.37% # attempts to use FU when none available
system.cpu0.iq.fu_full::SimdShift                   0      0.00%     85.37% # attempts to use FU when none available
system.cpu0.iq.fu_full::SimdShiftAcc                0      0.00%     85.37% # attempts to use FU when none available
system.cpu0.iq.fu_full::SimdSqrt                    0      0.00%     85.37% # attempts to use FU when none available
system.cpu0.iq.fu_full::SimdFloatAdd                0      0.00%     85.37% # attempts to use FU when none available
system.cpu0.iq.fu_full::SimdFloatAlu                0      0.00%     85.37% # attempts to use FU when none available
system.cpu0.iq.fu_full::SimdFloatCmp                0      0.00%     85.37% # attempts to use FU when none available
system.cpu0.iq.fu_full::SimdFloatCvt                0      0.00%     85.37% # attempts to use FU when none available
system.cpu0.iq.fu_full::SimdFloatDiv                0      0.00%     85.37% # attempts to use FU when none available
system.cpu0.iq.fu_full::SimdFloatMisc               0      0.00%     85.37% # attempts to use FU when none available
system.cpu0.iq.fu_full::SimdFloatMult               0      0.00%     85.37% # attempts to use FU when none available
system.cpu0.iq.fu_full::SimdFloatMultAcc            0      0.00%     85.37% # attempts to use FU when none available
system.cpu0.iq.fu_full::SimdFloatSqrt               0      0.00%     85.37% # attempts to use FU when none available
system.cpu0.iq.fu_full::MemRead                 92233     12.63%     98.00% # attempts to use FU when none available
system.cpu0.iq.fu_full::MemWrite                14614      2.00%    100.00% # attempts to use FU when none available
system.cpu0.iq.fu_full::IprAccess                   0      0.00%    100.00% # attempts to use FU when none available
system.cpu0.iq.fu_full::InstPrefetch                0      0.00%    100.00% # attempts to use FU when none available
system.cpu0.iq.FU_type_0::No_OpClass                0      0.00%      0.00% # Type of FU issued
system.cpu0.iq.FU_type_0::IntAlu             21067281     54.26%     54.26% # Type of FU issued
system.cpu0.iq.FU_type_0::IntMult              787058      2.03%     56.29% # Type of FU issued
system.cpu0.iq.FU_type_0::IntDiv                    0      0.00%     56.29% # Type of FU issued
system.cpu0.iq.FU_type_0::FloatAdd            3048525      7.85%     64.14% # Type of FU issued
system.cpu0.iq.FU_type_0::FloatCmp                 11      0.00%     64.14% # Type of FU issued
system.cpu0.iq.FU_type_0::FloatCvt                  0      0.00%     64.14% # Type of FU issued
system.cpu0.iq.FU_type_0::FloatMult           3028409      7.80%     71.94% # Type of FU issued
system.cpu0.iq.FU_type_0::FloatDiv                100      0.00%     71.94% # Type of FU issued
[...]
system.cpu3.icache.overall_mshr_miss_latency::total     12714000                       # number of overall MSHR miss cycles
system.cpu3.icache.ReadReq_mshr_miss_rate::cpu3.inst     0.001034                       # mshr miss rate for ReadReq accesses
system.cpu3.icache.ReadReq_mshr_miss_rate::total     0.001034                       # mshr miss rate for ReadReq accesses
system.cpu3.icache.demand_mshr_miss_rate::cpu3.inst     0.001034                       # mshr miss rate for demand accesses
system.cpu3.icache.demand_mshr_miss_rate::total     0.001034                       # mshr miss rate for demand accesses
system.cpu3.icache.overall_mshr_miss_rate::cpu3.inst     0.001034                       # mshr miss rate for overall accesses
system.cpu3.icache.overall_mshr_miss_rate::total     0.001034                       # mshr miss rate for overall accesses
system.cpu3.icache.ReadReq_avg_mshr_miss_latency::cpu3.inst 17440.329218                       # average ReadReq mshr miss latency
system.cpu3.icache.ReadReq_avg_mshr_miss_latency::total 17440.329218                       # average ReadReq mshr miss latency
system.cpu3.icache.demand_avg_mshr_miss_latency::cpu3.inst 17440.329218                       # average overall mshr miss latency
system.cpu3.icache.demand_avg_mshr_miss_latency::total 17440.329218                       # average overall mshr miss latency
system.cpu3.icache.overall_avg_mshr_miss_latency::cpu3.inst 17440.329218                       # average overall mshr miss latency
system.cpu3.icache.overall_avg_mshr_miss_latency::total 17440.329218                       # average overall mshr miss latency
system.cpu3.icache.no_allocate_misses               0                       # Number of misses that were no-allocate
system.cpu3.dcache.replacements                 49341                       # number of replacements
system.cpu3.dcache.tagsinuse                89.379851                       # Cycle average of tags in use
system.cpu3.dcache.total_refs                 1655093                       # Total number of references to valid blocks.
system.cpu3.dcache.sampled_refs                 49846                       # Sample count of references to valid blocks.
system.cpu3.dcache.avg_refs                 33.204129                       # Average number of references to valid blocks.
system.cpu3.dcache.warmup_cycle           15469057000                       # Cycle when the warmup percentage was hit.
system.cpu3.dcache.occ_blocks::cpu3.data    89.379851                       # Average occupied blocks per requestor
system.cpu3.dcache.occ_percent::cpu3.data     0.174570                       # Average percentage of cache occupancy
system.cpu3.dcache.occ_percent::total        0.174570                       # Average percentage of cache occupancy
system.cpu3.dcache.ReadReq_hits::cpu3.data       929382                       # number of ReadReq hits
system.cpu3.dcache.ReadReq_hits::total         929382                       # number of ReadReq hits
system.cpu3.dcache.WriteReq_hits::cpu3.data       725643                       # number of WriteReq hits
system.cpu3.dcache.WriteReq_hits::total        725643                       # number of WriteReq hits
system.cpu3.dcache.LoadLockedReq_hits::cpu3.data           22                       # number of LoadLockedReq hits
system.cpu3.dcache.LoadLockedReq_hits::total           22                       # number of LoadLockedReq hits
system.cpu3.dcache.StoreCondReq_hits::cpu3.data           15                       # number of StoreCondReq hits
system.cpu3.dcache.StoreCondReq_hits::total           15                       # number of StoreCondReq hits
system.cpu3.dcache.demand_hits::cpu3.data      1655025                       # number of demand (read+write) hits
system.cpu3.dcache.demand_hits::total         1655025                       # number of demand (read+write) hits
system.cpu3.dcache.overall_hits::cpu3.data      1655025                       # number of overall hits
system.cpu3.dcache.overall_hits::total        1655025                       # number of overall hits
system.cpu3.dcache.ReadReq_misses::cpu3.data       214302                       # number of ReadReq misses
system.cpu3.dcache.ReadReq_misses::total       214302                       # number of ReadReq misses
system.cpu3.dcache.WriteReq_misses::cpu3.data        25262                       # number of WriteReq misses
system.cpu3.dcache.WriteReq_misses::total        25262                       # number of WriteReq misses
system.cpu3.dcache.LoadLockedReq_misses::cpu3.data            9                       # number of LoadLockedReq misses
system.cpu3.dcache.LoadLockedReq_misses::total            9                       # number of LoadLockedReq misses
system.cpu3.dcache.StoreCondReq_misses::cpu3.data           12                       # number of StoreCondReq misses
system.cpu3.dcache.StoreCondReq_misses::total           12                       # number of StoreCondReq misses
system.cpu3.dcache.demand_misses::cpu3.data       239564                       # number of demand (read+write) misses
system.cpu3.dcache.demand_misses::total        239564                       # number of demand (read+write) misses
system.cpu3.dcache.overall_misses::cpu3.data       239564                       # number of overall misses
system.cpu3.dcache.overall_misses::total       239564                       # number of overall misses
system.cpu3.dcache.ReadReq_miss_latency::cpu3.data  11493560000                       # number of ReadReq miss cycles
system.cpu3.dcache.ReadReq_miss_latency::total  11493560000                       # number of ReadReq miss cycles
system.cpu3.dcache.WriteReq_miss_latency::cpu3.data   1536081295                       # number of WriteReq miss cycles
system.cpu3.dcache.WriteReq_miss_latency::total   1536081295                       # number of WriteReq miss cycles
system.cpu3.dcache.LoadLockedReq_miss_latency::cpu3.data       154000                       # number of LoadLockedReq miss cycles
system.cpu3.dcache.LoadLockedReq_miss_latency::total       154000                       # number of LoadLockedReq miss cycles
system.cpu3.dcache.StoreCondReq_miss_latency::cpu3.data       189000                       # number of StoreCondReq miss cycles
system.cpu3.dcache.StoreCondReq_miss_latency::total       189000                       # number of StoreCondReq miss cycles
system.cpu3.dcache.demand_miss_latency::cpu3.data  13029641295                       # number of demand (read+write) miss cycles
system.cpu3.dcache.demand_miss_latency::total  13029641295                       # number of demand (read+write) miss cycles
system.cpu3.dcache.overall_miss_latency::cpu3.data  13029641295                       # number of overall miss cycles
system.cpu3.dcache.overall_miss_latency::total  13029641295                       # number of overall miss cycles
system.cpu3.dcache.ReadReq_accesses::cpu3.data      1143684                       # number of ReadReq accesses(hits+misses)
system.cpu3.dcache.ReadReq_accesses::total      1143684                       # number of ReadReq accesses(hits+misses)
system.cpu3.dcache.WriteReq_accesses::cpu3.data       750905                       # number of WriteReq accesses(hits+misses)
system.cpu3.dcache.WriteReq_accesses::total       750905                       # number of WriteReq accesses(hits+misses)
system.cpu3.dcache.LoadLockedReq_accesses::cpu3.data           31                       # number of LoadLockedReq accesses(hits+misses)
system.cpu3.dcache.LoadLockedReq_accesses::total           31                       # number of LoadLockedReq accesses(hits+misses)
system.cpu3.dcache.StoreCondReq_accesses::cpu3.data           27                       # number of StoreCondReq accesses(hits+misses)
system.cpu3.dcache.StoreCondReq_accesses::total           27                       # number of StoreCondReq accesses(hits+misses)
system.cpu3.dcache.demand_accesses::cpu3.data      1894589                       # number of demand (read+write) accesses
system.cpu3.dcache.demand_accesses::total      1894589                       # number of demand (read+write) accesses
system.cpu3.dcache.overall_accesses::cpu3.data      1894589                       # number of overall (read+write) accesses
system.cpu3.dcache.overall_accesses::total      1894589                       # number of overall (read+write) accesses
system.cpu3.dcache.ReadReq_miss_rate::cpu3.data     0.187379                       # miss rate for ReadReq accesses
system.cpu3.dcache.ReadReq_miss_rate::total     0.187379                       # miss rate for ReadReq accesses
system.cpu3.dcache.WriteReq_miss_rate::cpu3.data     0.033642                       # miss rate for WriteReq accesses
system.cpu3.dcache.WriteReq_miss_rate::total     0.033642                       # miss rate for WriteReq accesses
system.cpu3.dcache.LoadLockedReq_miss_rate::cpu3.data     0.290323                       # miss rate for LoadLockedReq accesses
system.cpu3.dcache.LoadLockedReq_miss_rate::total     0.290323                       # miss rate for LoadLockedReq accesses
system.cpu3.dcache.StoreCondReq_miss_rate::cpu3.data     0.444444                       # miss rate for StoreCondReq accesses
system.cpu3.dcache.StoreCondReq_miss_rate::total     0.444444                       # miss rate for StoreCondReq accesses
system.cpu3.dcache.demand_miss_rate::cpu3.data     0.126446                       # miss rate for demand accesses
system.cpu3.dcache.demand_miss_rate::total     0.126446                       # miss rate for demand accesses
system.cpu3.dcache.overall_miss_rate::cpu3.data     0.126446                       # miss rate for overall accesses
system.cpu3.dcache.overall_miss_rate::total     0.126446                       # miss rate for overall accesses
system.cpu3.dcache.ReadReq_avg_miss_latency::cpu3.data 53632.537261                       # average ReadReq miss latency
system.cpu3.dcache.ReadReq_avg_miss_latency::total 53632.537261                       # average ReadReq miss latency
system.cpu3.dcache.WriteReq_avg_miss_latency::cpu3.data 60806.004869                       # average WriteReq miss latency
system.cpu3.dcache.WriteReq_avg_miss_latency::total 60806.004869                       # average WriteReq miss latency
system.cpu3.dcache.LoadLockedReq_avg_miss_latency::cpu3.data 17111.111111                       # average LoadLockedReq miss latency
system.cpu3.dcache.LoadLockedReq_avg_miss_latency::total 17111.111111                       # average LoadLockedReq miss latency
system.cpu3.dcache.StoreCondReq_avg_miss_latency::cpu3.data        15750                       # average StoreCondReq miss latency
system.cpu3.dcache.StoreCondReq_avg_miss_latency::total        15750                       # average StoreCondReq miss latency
system.cpu3.dcache.demand_avg_miss_latency::cpu3.data 54388.978707                       # average overall miss latency
system.cpu3.dcache.demand_avg_miss_latency::total 54388.978707                       # average overall miss latency
system.cpu3.dcache.overall_avg_miss_latency::cpu3.data 54388.978707                       # average overall miss latency
system.cpu3.dcache.overall_avg_miss_latency::total 54388.978707                       # average overall miss latency
system.cpu3.dcache.blocked_cycles::no_mshrs      1041998                       # number of cycles access was blocked
system.cpu3.dcache.blocked_cycles::no_targets    952407997                       # number of cycles access was blocked
system.cpu3.dcache.blocked::no_mshrs               58                       # number of cycles access was blocked
system.cpu3.dcache.blocked::no_targets          20396                       # number of cycles access was blocked
system.cpu3.dcache.avg_blocked_cycles::no_mshrs 17965.482759                       # average number of cycles each access was blocked
system.cpu3.dcache.avg_blocked_cycles::no_targets 46695.822563                       # average number of cycles each access was blocked
system.cpu3.dcache.fast_writes                      0                       # number of fast writes performed
system.cpu3.dcache.cache_copies                     0                       # number of cache copies performed
system.cpu3.dcache.writebacks::writebacks        20237                       # number of writebacks
system.cpu3.dcache.writebacks::total            20237                       # number of writebacks
system.cpu3.dcache.ReadReq_mshr_hits::cpu3.data       176827                       # number of ReadReq MSHR hits
system.cpu3.dcache.ReadReq_mshr_hits::total       176827                       # number of ReadReq MSHR hits
system.cpu3.dcache.WriteReq_mshr_hits::cpu3.data        12834                       # number of WriteReq MSHR hits
system.cpu3.dcache.WriteReq_mshr_hits::total        12834                       # number of WriteReq MSHR hits
system.cpu3.dcache.LoadLockedReq_mshr_hits::cpu3.data            4                       # number of LoadLockedReq MSHR hits
system.cpu3.dcache.LoadLockedReq_mshr_hits::total            4                       # number of LoadLockedReq MSHR hits
system.cpu3.dcache.demand_mshr_hits::cpu3.data       189661                       # number of demand (read+write) MSHR hits
system.cpu3.dcache.demand_mshr_hits::total       189661                       # number of demand (read+write) MSHR hits
system.cpu3.dcache.overall_mshr_hits::cpu3.data       189661                       # number of overall MSHR hits
system.cpu3.dcache.overall_mshr_hits::total       189661                       # number of overall MSHR hits
system.cpu3.dcache.ReadReq_mshr_misses::cpu3.data        37475                       # number of ReadReq MSHR misses
system.cpu3.dcache.ReadReq_mshr_misses::total        37475                       # number of ReadReq MSHR misses
system.cpu3.dcache.WriteReq_mshr_misses::cpu3.data        12428                       # number of WriteReq MSHR misses
system.cpu3.dcache.WriteReq_mshr_misses::total        12428                       # number of WriteReq MSHR misses
system.cpu3.dcache.LoadLockedReq_mshr_misses::cpu3.data            5                       # number of LoadLockedReq MSHR misses
system.cpu3.dcache.LoadLockedReq_mshr_misses::total            5                       # number of LoadLockedReq MSHR misses
system.cpu3.dcache.StoreCondReq_mshr_misses::cpu3.data           12                       # number of StoreCondReq MSHR misses
system.cpu3.dcache.StoreCondReq_mshr_misses::total           12                       # number of StoreCondReq MSHR misses
system.cpu3.dcache.demand_mshr_misses::cpu3.data        49903                       # number of demand (read+write) MSHR misses
system.cpu3.dcache.demand_mshr_misses::total        49903                       # number of demand (read+write) MSHR misses
system.cpu3.dcache.overall_mshr_misses::cpu3.data        49903                       # number of overall MSHR misses
system.cpu3.dcache.overall_mshr_misses::total        49903                       # number of overall MSHR misses
system.cpu3.dcache.ReadReq_mshr_miss_latency::cpu3.data   2050379000                       # number of ReadReq MSHR miss cycles
system.cpu3.dcache.ReadReq_mshr_miss_latency::total   2050379000                       # number of ReadReq MSHR miss cycles
system.cpu3.dcache.WriteReq_mshr_miss_latency::cpu3.data    791351646                       # number of WriteReq MSHR miss cycles
system.cpu3.dcache.WriteReq_mshr_miss_latency::total    791351646                       # number of WriteReq MSHR miss cycles
system.cpu3.dcache.LoadLockedReq_mshr_miss_latency::cpu3.data        13000                       # number of LoadLockedReq MSHR miss cycles
system.cpu3.dcache.LoadLockedReq_mshr_miss_latency::total        13000                       # number of LoadLockedReq MSHR miss cycles
system.cpu3.dcache.StoreCondReq_mshr_miss_latency::cpu3.data       153000                       # number of StoreCondReq MSHR miss cycles
system.cpu3.dcache.StoreCondReq_mshr_miss_latency::total       153000                       # number of StoreCondReq MSHR miss cycles
system.cpu3.dcache.demand_mshr_miss_latency::cpu3.data   2841730646                       # number of demand (read+write) MSHR miss cycles
system.cpu3.dcache.demand_mshr_miss_latency::total   2841730646                       # number of demand (read+write) MSHR miss cycles
system.cpu3.dcache.overall_mshr_miss_latency::cpu3.data   2841730646                       # number of overall MSHR miss cycles
system.cpu3.dcache.overall_mshr_miss_latency::total   2841730646                       # number of overall MSHR miss cycles
system.cpu3.dcache.ReadReq_mshr_miss_rate::cpu3.data     0.032767                       # mshr miss rate for ReadReq accesses
system.cpu3.dcache.ReadReq_mshr_miss_rate::total     0.032767                       # mshr miss rate for ReadReq accesses
system.cpu3.dcache.WriteReq_mshr_miss_rate::cpu3.data     0.016551                       # mshr miss rate for WriteReq accesses
system.cpu3.dcache.WriteReq_mshr_miss_rate::total     0.016551                       # mshr miss rate for WriteReq accesses
system.cpu3.dcache.LoadLockedReq_mshr_miss_rate::cpu3.data     0.161290                       # mshr miss rate for LoadLockedReq accesses
system.cpu3.dcache.LoadLockedReq_mshr_miss_rate::total     0.161290                       # mshr miss rate for LoadLockedReq accesses
system.cpu3.dcache.StoreCondReq_mshr_miss_rate::cpu3.data     0.444444                       # mshr miss rate for StoreCondReq accesses
system.cpu3.dcache.StoreCondReq_mshr_miss_rate::total     0.444444                       # mshr miss rate for StoreCondReq accesses
system.cpu3.dcache.demand_mshr_miss_rate::cpu3.data     0.026340                       # mshr miss rate for demand accesses
system.cpu3.dcache.demand_mshr_miss_rate::total     0.026340                       # mshr miss rate for demand accesses
system.cpu3.dcache.overall_mshr_miss_rate::cpu3.data     0.026340                       # mshr miss rate for overall accesses
system.cpu3.dcache.overall_mshr_miss_rate::total     0.026340                       # mshr miss rate for overall accesses
system.cpu3.dcache.ReadReq_avg_mshr_miss_latency::cpu3.data 54713.248833                       # average ReadReq mshr miss latency
system.cpu3.dcache.ReadReq_avg_mshr_miss_latency::total 54713.248833                       # average ReadReq mshr miss latency
system.cpu3.dcache.WriteReq_avg_mshr_miss_latency::cpu3.data 63674.899099                       # average WriteReq mshr miss latency
system.cpu3.dcache.WriteReq_avg_mshr_miss_latency::total 63674.899099                       # average WriteReq mshr miss latency
system.cpu3.dcache.LoadLockedReq_avg_mshr_miss_latency::cpu3.data         2600                       # average LoadLockedReq mshr miss latency
system.cpu3.dcache.LoadLockedReq_avg_mshr_miss_latency::total         2600                       # average LoadLockedReq mshr miss latency
system.cpu3.dcache.StoreCondReq_avg_mshr_miss_latency::cpu3.data        12750                       # average StoreCondReq mshr miss latency
system.cpu3.dcache.StoreCondReq_avg_mshr_miss_latency::total        12750                       # average StoreCondReq mshr miss latency
system.cpu3.dcache.demand_avg_mshr_miss_latency::cpu3.data 56945.086388                       # average overall mshr miss latency
system.cpu3.dcache.demand_avg_mshr_miss_latency::total 56945.086388                       # average overall mshr miss latency
system.cpu3.dcache.overall_avg_mshr_miss_latency::cpu3.data 56945.086388                       # average overall mshr miss latency
system.cpu3.dcache.overall_avg_mshr_miss_latency::total 56945.086388                       # average overall mshr miss latency
system.cpu3.dcache.no_allocate_misses               0                       # Number of misses that were no-allocate

---------- End Simulation Statistics   ----------
