
---------- Begin Simulation Statistics ----------
sim_seconds                                  0.018753                       # Number of seconds simulated
sim_ticks                                 18752929000                       # Number of ticks simulated
final_tick                                18752929000                       # Number of ticks from beginning of simulation (restored from checkpoints and never reset)
sim_freq                                 1000000000000                       # Frequency of simulated ticks
host_inst_rate                                 128154                       # Simulator instruction rate (inst/s)
host_op_rate                                   128154                       # Simulator op (including micro ops) rate (op/s)
host_tick_rate                               41200835                       # Simulator tick rate (ticks/s)
host_mem_usage                                 369132                       # Number of bytes of host memory used
host_seconds                                   455.16                       # Real time elapsed on the host
sim_insts                                    58330246                       # Number of instructions simulated
sim_ops                                      58330246                       # Number of ops (including micro ops) simulated
system.physmem.bytes_read::cpu0.inst           180416                       # Number of bytes read from this memory
system.physmem.bytes_read::cpu0.data          5494656                       # Number of bytes read from this memory
system.physmem.bytes_read::cpu1.inst            23744                       # Number of bytes read from this memory
system.physmem.bytes_read::cpu1.data          3176000                       # Number of bytes read from this memory
system.physmem.bytes_read::cpu2.inst             7232                       # Number of bytes read from this memory
system.physmem.bytes_read::cpu2.data          3173824                       # Number of bytes read from this memory
system.physmem.bytes_read::cpu3.inst             6464                       # Number of bytes read from this memory
system.physmem.bytes_read::cpu3.data          3174720                       # Number of bytes read from this memory
system.physmem.bytes_read::total             15237056                       # Number of bytes read from this memory
system.physmem.bytes_inst_read::cpu0.inst       180416                       # Number of instructions bytes read from this memory
system.physmem.bytes_inst_read::cpu1.inst        23744                       # Number of instructions bytes read from this memory
system.physmem.bytes_inst_read::cpu2.inst         7232                       # Number of instructions bytes read from this memory
system.physmem.bytes_inst_read::cpu3.inst         6464                       # Number of instructions bytes read from this memory
system.physmem.bytes_inst_read::total          217856                       # Number of instructions bytes read from this memory
system.physmem.bytes_written::writebacks      7390592                       # Number of bytes written to this memory
system.physmem.bytes_written::total           7390592                       # Number of bytes written to this memory
system.physmem.num_reads::cpu0.inst              2819                       # Number of read requests responded to by this memory
system.physmem.num_reads::cpu0.data             85854                       # Number of read requests responded to by this memory
system.physmem.num_reads::cpu1.inst               371                       # Number of read requests responded to by this memory
system.physmem.num_reads::cpu1.data             49625                       # Number of read requests responded to by this memory
system.physmem.num_reads::cpu2.inst               113                       # Number of read requests responded to by this memory
system.physmem.num_reads::cpu2.data             49591                       # Number of read requests responded to by this memory
system.physmem.num_reads::cpu3.inst               101                       # Number of read requests responded to by this memory
system.physmem.num_reads::cpu3.data             49605                       # Number of read requests responded to by this memory
system.physmem.num_reads::total                238079                       # Number of read requests responded to by this memory
system.physmem.num_writes::writebacks          115478                       # Number of write requests responded to by this memory
system.physmem.num_writes::total               115478                       # Number of write requests responded to by this memory
system.physmem.bw_read::cpu0.inst             9620684                       # Total read bandwidth from this memory (bytes/s)
system.physmem.bw_read::cpu0.data           293002549                       # Total read bandwidth from this memory (bytes/s)
system.physmem.bw_read::cpu1.inst             1266149                       # Total read bandwidth from this memory (bytes/s)
system.physmem.bw_read::cpu1.data           169360210                       # Total read bandwidth from this memory (bytes/s)
system.physmem.bw_read::cpu2.inst              385646                       # Total read bandwidth from this memory (bytes/s)
system.physmem.bw_read::cpu2.data           169244175                       # Total read bandwidth from this memory (bytes/s)
system.physmem.bw_read::cpu3.inst              344693                       # Total read bandwidth from this memory (bytes/s)
system.physmem.bw_read::cpu3.data           169291954                       # Total read bandwidth from this memory (bytes/s)
system.physmem.bw_read::total               812516061                       # Total read bandwidth from this memory (bytes/s)
system.physmem.bw_inst_read::cpu0.inst        9620684                       # Instruction read bandwidth from this memory (bytes/s)
system.physmem.bw_inst_read::cpu1.inst        1266149                       # Instruction read bandwidth from this memory (bytes/s)
system.physmem.bw_inst_read::cpu2.inst         385646                       # Instruction read bandwidth from this memory (bytes/s)
system.physmem.bw_inst_read::cpu3.inst         344693                       # Instruction read bandwidth from this memory (bytes/s)
system.physmem.bw_inst_read::total           11617172                       # Instruction read bandwidth from this memory (bytes/s)
system.physmem.bw_write::writebacks         394103342                       # Write bandwidth from this memory (bytes/s)
system.physmem.bw_write::total              394103342                       # Write bandwidth from this memory (bytes/s)
system.physmem.bw_total::writebacks         394103342                       # Total bandwidth to/from this memory (bytes/s)
system.physmem.bw_total::cpu0.inst            9620684                       # Total bandwidth to/from this memory (bytes/s)
system.physmem.bw_total::cpu0.data          293002549                       # Total bandwidth to/from this memory (bytes/s)
system.physmem.bw_total::cpu1.inst            1266149                       # Total bandwidth to/from this memory (bytes/s)
system.physmem.bw_total::cpu1.data          169360210                       # Total bandwidth to/from this memory (bytes/s)
system.physmem.bw_total::cpu2.inst             385646                       # Total bandwidth to/from this memory (bytes/s)
system.physmem.bw_total::cpu2.data          169244175                       # Total bandwidth to/from this memory (bytes/s)
system.physmem.bw_total::cpu3.inst             344693                       # Total bandwidth to/from this memory (bytes/s)
system.physmem.bw_total::cpu3.data          169291954                       # Total bandwidth to/from this memory (bytes/s)
system.physmem.bw_total::total             1206619403                       # Total bandwidth to/from this memory (bytes/s)
workload.num_syscalls                             245                       # Number of system calls
system.l2.replacements                         234444                       # number of replacements
system.l2.tagsinuse                       2381.689111                       # Cycle average of tags in use
system.l2.total_refs                            50220                       # Total number of references to valid blocks.
system.l2.sampled_refs                         237605                       # Sample count of references to valid blocks.
system.l2.avg_refs                           0.211359                       # Average number of references to valid blocks.
system.l2.warmup_cycle                    15531433000                       # Cycle when the warmup percentage was hit.
system.l2.occ_blocks::writebacks          1704.456867                       # Average occupied blocks per requestor
system.l2.occ_blocks::cpu0.inst             81.618823                       # Average occupied blocks per requestor
system.l2.occ_blocks::cpu0.data            173.027158                       # Average occupied blocks per requestor
system.l2.occ_blocks::cpu1.inst              1.299297                       # Average occupied blocks per requestor
system.l2.occ_blocks::cpu1.data            143.943776                       # Average occupied blocks per requestor
system.l2.occ_blocks::cpu2.inst              0.435187                       # Average occupied blocks per requestor
system.l2.occ_blocks::cpu2.data            139.798460                       # Average occupied blocks per requestor
system.l2.occ_blocks::cpu3.inst              0.223311                       # Average occupied blocks per requestor
system.l2.occ_blocks::cpu3.data            136.886231                       # Average occupied blocks per requestor
system.l2.occ_percent::writebacks            0.416127                       # Average percentage of cache occupancy
system.l2.occ_percent::cpu0.inst             0.019926                       # Average percentage of cache occupancy
system.l2.occ_percent::cpu0.data             0.042243                       # Average percentage of cache occupancy
system.l2.occ_percent::cpu1.inst             0.000317                       # Average percentage of cache occupancy
system.l2.occ_percent::cpu1.data             0.035143                       # Average percentage of cache occupancy
system.l2.occ_percent::cpu2.inst             0.000106                       # Average percentage of cache occupancy
system.l2.occ_percent::cpu2.data             0.034130                       # Average percentage of cache occupancy
system.l2.occ_percent::cpu3.inst             0.000055                       # Average percentage of cache occupancy
system.l2.occ_percent::cpu3.data             0.033419                       # Average percentage of cache occupancy
system.l2.occ_percent::total                 0.581467                       # Average percentage of cache occupancy
system.l2.ReadReq_hits::cpu0.inst                6265                       # number of ReadReq hits
system.l2.ReadReq_hits::cpu0.data                2334                       # number of ReadReq hits
system.l2.ReadReq_hits::cpu1.inst                 759                       # number of ReadReq hits
system.l2.ReadReq_hits::cpu1.data                1802                       # number of ReadReq hits
system.l2.ReadReq_hits::cpu2.inst                1030                       # number of ReadReq hits
system.l2.ReadReq_hits::cpu2.data                1873                       # number of ReadReq hits
system.l2.ReadReq_hits::cpu3.inst                 682                       # number of ReadReq hits
system.l2.ReadReq_hits::cpu3.data                1780                       # number of ReadReq hits
system.l2.ReadReq_hits::total                   16525                       # number of ReadReq hits
system.l2.Writeback_hits::writebacks           117891                       # number of Writeback hits
system.l2.Writeback_hits::total                117891                       # number of Writeback hits
system.l2.UpgradeReq_hits::cpu0.data                4                       # number of UpgradeReq hits
system.l2.UpgradeReq_hits::cpu1.data                2                       # number of UpgradeReq hits
system.l2.UpgradeReq_hits::cpu2.data                1                       # number of UpgradeReq hits
system.l2.UpgradeReq_hits::cpu3.data                2                       # number of UpgradeReq hits
system.l2.UpgradeReq_hits::total                    9                       # number of UpgradeReq hits
system.l2.SCUpgradeReq_hits::cpu0.data              1                       # number of SCUpgradeReq hits
system.l2.SCUpgradeReq_hits::cpu1.data              1                       # number of SCUpgradeReq hits
system.l2.SCUpgradeReq_hits::cpu3.data              2                       # number of SCUpgradeReq hits
system.l2.SCUpgradeReq_hits::total                  4                       # number of SCUpgradeReq hits
system.l2.ReadExReq_hits::cpu0.data               163                       # number of ReadExReq hits
system.l2.ReadExReq_hits::cpu1.data                32                       # number of ReadExReq hits
system.l2.ReadExReq_hits::cpu2.data                28                       # number of ReadExReq hits
system.l2.ReadExReq_hits::cpu3.data                 6                       # number of ReadExReq hits
system.l2.ReadExReq_hits::total                   229                       # number of ReadExReq hits
system.l2.demand_hits::cpu0.inst                 6265                       # number of demand (read+write) hits
system.l2.demand_hits::cpu0.data                 2497                       # number of demand (read+write) hits
system.l2.demand_hits::cpu1.inst                  759                       # number of demand (read+write) hits
system.l2.demand_hits::cpu1.data                 1834                       # number of demand (read+write) hits
system.l2.demand_hits::cpu2.inst                 1030                       # number of demand (read+write) hits
system.l2.demand_hits::cpu2.data                 1901                       # number of demand (read+write) hits
system.l2.demand_hits::cpu3.inst                  682                       # number of demand (read+write) hits
system.l2.demand_hits::cpu3.data                 1786                       # number of demand (read+write) hits
system.l2.demand_hits::total                    16754                       # number of demand (read+write) hits
system.l2.overall_hits::cpu0.inst                6265                       # number of overall hits
system.l2.overall_hits::cpu0.data                2497                       # number of overall hits
system.l2.overall_hits::cpu1.inst                 759                       # number of overall hits
system.l2.overall_hits::cpu1.data                1834                       # number of overall hits
system.l2.overall_hits::cpu2.inst                1030                       # number of overall hits
system.l2.overall_hits::cpu2.data                1901                       # number of overall hits
system.l2.overall_hits::cpu3.inst                 682                       # number of overall hits
system.l2.overall_hits::cpu3.data                1786                       # number of overall hits
system.l2.overall_hits::total                   16754                       # number of overall hits
system.l2.ReadReq_misses::cpu0.inst              2829                       # number of ReadReq misses
system.l2.ReadReq_misses::cpu0.data             38354                       # number of ReadReq misses
system.l2.ReadReq_misses::cpu1.inst               391                       # number of ReadReq misses
system.l2.ReadReq_misses::cpu1.data             37260                       # number of ReadReq misses
system.l2.ReadReq_misses::cpu2.inst               174                       # number of ReadReq misses
system.l2.ReadReq_misses::cpu2.data             37239                       # number of ReadReq misses
system.l2.ReadReq_misses::cpu3.inst               117                       # number of ReadReq misses
system.l2.ReadReq_misses::cpu3.data             37236                       # number of ReadReq misses
system.l2.ReadReq_misses::total                153600                       # number of ReadReq misses
system.l2.UpgradeReq_misses::cpu0.data              3                       # number of UpgradeReq misses
system.l2.UpgradeReq_misses::cpu2.data              2                       # number of UpgradeReq misses
system.l2.UpgradeReq_misses::total                  5                       # number of UpgradeReq misses
system.l2.SCUpgradeReq_misses::cpu0.data            3                       # number of SCUpgradeReq misses
system.l2.SCUpgradeReq_misses::cpu2.data            2                       # number of SCUpgradeReq misses
system.l2.SCUpgradeReq_misses::cpu3.data            2                       # number of SCUpgradeReq misses
system.l2.SCUpgradeReq_misses::total                7                       # number of SCUpgradeReq misses
system.l2.ReadExReq_misses::cpu0.data           47519                       # number of ReadExReq misses
system.l2.ReadExReq_misses::cpu1.data           12379                       # number of ReadExReq misses
system.l2.ReadExReq_misses::cpu2.data           12379                       # number of ReadExReq misses
system.l2.ReadExReq_misses::cpu3.data           12386                       # number of ReadExReq misses
system.l2.ReadExReq_misses::total               84663                       # number of ReadExReq misses
system.l2.demand_misses::cpu0.inst               2829                       # number of demand (read+write) misses
system.l2.demand_misses::cpu0.data              85873                       # number of demand (read+write) misses
system.l2.demand_misses::cpu1.inst                391                       # number of demand (read+write) misses
system.l2.demand_misses::cpu1.data              49639                       # number of demand (read+write) misses
system.l2.demand_misses::cpu2.inst                174                       # number of demand (read+write) misses
system.l2.demand_misses::cpu2.data              49618                       # number of demand (read+write) misses
system.l2.demand_misses::cpu3.inst                117                       # number of demand (read+write) misses
system.l2.demand_misses::cpu3.data              49622                       # number of demand (read+write) misses
system.l2.demand_misses::total                 238263                       # number of demand (read+write) misses
system.l2.overall_misses::cpu0.inst              2829                       # number of overall misses
system.l2.overall_misses::cpu0.data             85873                       # number of overall misses
system.l2.overall_misses::cpu1.inst               391                       # number of overall misses
system.l2.overall_misses::cpu1.data             49639                       # number of overall misses
system.l2.overall_misses::cpu2.inst               174                       # number of overall misses
system.l2.overall_misses::cpu2.data             49618                       # number of overall misses
system.l2.overall_misses::cpu3.inst               117                       # number of overall misses
system.l2.overall_misses::cpu3.data             49622                       # number of overall misses
system.l2.overall_misses::total                238263                       # number of overall misses
system.l2.ReadReq_miss_latency::cpu0.inst    147082000                       # number of ReadReq miss cycles
system.l2.ReadReq_miss_latency::cpu0.data   2028990000                       # number of ReadReq miss cycles
system.l2.ReadReq_miss_latency::cpu1.inst     20211000                       # number of ReadReq miss cycles
system.l2.ReadReq_miss_latency::cpu1.data   1970272000                       # number of ReadReq miss cycles
system.l2.ReadReq_miss_latency::cpu2.inst      8697000                       # number of ReadReq miss cycles
system.l2.ReadReq_miss_latency::cpu2.data   1970158000                       # number of ReadReq miss cycles
system.l2.ReadReq_miss_latency::cpu3.inst      5980000                       # number of ReadReq miss cycles
system.l2.ReadReq_miss_latency::cpu3.data   1969090000                       # number of ReadReq miss cycles
system.l2.ReadReq_miss_latency::total      8120480000                       # number of ReadReq miss cycles
system.l2.UpgradeReq_miss_latency::cpu0.data        52000                       # number of UpgradeReq miss cycles
system.l2.UpgradeReq_miss_latency::cpu2.data        53000                       # number of UpgradeReq miss cycles
system.l2.UpgradeReq_miss_latency::total       105000                       # number of UpgradeReq miss cycles
system.l2.ReadExReq_miss_latency::cpu0.data   2517599000                       # number of ReadExReq miss cycles
system.l2.ReadExReq_miss_latency::cpu1.data    671395000                       # number of ReadExReq miss cycles
system.l2.ReadExReq_miss_latency::cpu2.data    694292000                       # number of ReadExReq miss cycles
system.l2.ReadExReq_miss_latency::cpu3.data    691681000                       # number of ReadExReq miss cycles
system.l2.ReadExReq_miss_latency::total    4574967000                       # number of ReadExReq miss cycles
system.l2.demand_miss_latency::cpu0.inst    147082000                       # number of demand (read+write) miss cycles
system.l2.demand_miss_latency::cpu0.data   4546589000                       # number of demand (read+write) miss cycles
system.l2.demand_miss_latency::cpu1.inst     20211000                       # number of demand (read+write) miss cycles
system.l2.demand_miss_latency::cpu1.data   2641667000                       # number of demand (read+write) miss cycles
system.l2.demand_miss_latency::cpu2.inst      8697000                       # number of demand (read+write) miss cycles
system.l2.demand_miss_latency::cpu2.data   2664450000                       # number of demand (read+write) miss cycles
system.l2.demand_miss_latency::cpu3.inst      5980000                       # number of demand (read+write) miss cycles
system.l2.demand_miss_latency::cpu3.data   2660771000                       # number of demand (read+write) miss cycles
system.l2.demand_miss_latency::total      12695447000                       # number of demand (read+write) miss cycles
system.l2.overall_miss_latency::cpu0.inst    147082000                       # number of overall miss cycles
system.l2.overall_miss_latency::cpu0.data   4546589000                       # number of overall miss cycles
system.l2.overall_miss_latency::cpu1.inst     20211000                       # number of overall miss cycles
system.l2.overall_miss_latency::cpu1.data   2641667000                       # number of overall miss cycles
system.l2.overall_miss_latency::cpu2.inst      8697000                       # number of overall miss cycles
system.l2.overall_miss_latency::cpu2.data   2664450000                       # number of overall miss cycles
system.l2.overall_miss_latency::cpu3.inst      5980000                       # number of overall miss cycles
system.l2.overall_miss_latency::cpu3.data   2660771000                       # number of overall miss cycles
system.l2.overall_miss_latency::total     12695447000                       # number of overall miss cycles
system.l2.ReadReq_accesses::cpu0.inst            9094                       # number of ReadReq accesses(hits+misses)
system.l2.ReadReq_accesses::cpu0.data           40688                       # number of ReadReq accesses(hits+misses)
system.l2.ReadReq_accesses::cpu1.inst            1150                       # number of ReadReq accesses(hits+misses)
system.l2.ReadReq_accesses::cpu1.data           39062                       # number of ReadReq accesses(hits+misses)
system.l2.ReadReq_accesses::cpu2.inst            1204                       # number of ReadReq accesses(hits+misses)
system.l2.ReadReq_accesses::cpu2.data           39112                       # number of ReadReq accesses(hits+misses)
system.l2.ReadReq_accesses::cpu3.inst             799                       # number of ReadReq accesses(hits+misses)
system.l2.ReadReq_accesses::cpu3.data           39016                       # number of ReadReq accesses(hits+misses)
system.l2.ReadReq_accesses::total              170125                       # number of ReadReq accesses(hits+misses)
system.l2.Writeback_accesses::writebacks       117891                       # number of Writeback accesses(hits+misses)
system.l2.Writeback_accesses::total            117891                       # number of Writeback accesses(hits+misses)
system.l2.UpgradeReq_accesses::cpu0.data            7                       # number of UpgradeReq accesses(hits+misses)
system.l2.UpgradeReq_accesses::cpu1.data            2                       # number of UpgradeReq accesses(hits+misses)
system.l2.UpgradeReq_accesses::cpu2.data            3                       # number of UpgradeReq accesses(hits+misses)
system.l2.UpgradeReq_accesses::cpu3.data            2                       # number of UpgradeReq accesses(hits+misses)
system.l2.UpgradeReq_accesses::total               14                       # number of UpgradeReq accesses(hits+misses)
system.l2.SCUpgradeReq_accesses::cpu0.data            4                       # number of SCUpgradeReq accesses(hits+misses)
system.l2.SCUpgradeReq_accesses::cpu1.data            1                       # number of SCUpgradeReq accesses(hits+misses)
system.l2.SCUpgradeReq_accesses::cpu2.data            2                       # number of SCUpgradeReq accesses(hits+misses)
system.l2.SCUpgradeReq_accesses::cpu3.data            4                       # number of SCUpgradeReq accesses(hits+misses)
system.l2.SCUpgradeReq_accesses::total             11                       # number of SCUpgradeReq accesses(hits+misses)
system.l2.ReadExReq_accesses::cpu0.data         47682                       # number of ReadExReq accesses(hits+misses)
system.l2.ReadExReq_accesses::cpu1.data         12411                       # number of ReadExReq accesses(hits+misses)
system.l2.ReadExReq_accesses::cpu2.data         12407                       # number of ReadExReq accesses(hits+misses)
system.l2.ReadExReq_accesses::cpu3.data         12392                       # number of ReadExReq accesses(hits+misses)
system.l2.ReadExReq_accesses::total             84892                       # number of ReadExReq accesses(hits+misses)
system.l2.demand_accesses::cpu0.inst             9094                       # number of demand (read+write) accesses
system.l2.demand_accesses::cpu0.data            88370                       # number of demand (read+write) accesses
system.l2.demand_accesses::cpu1.inst             1150                       # number of demand (read+write) accesses
system.l2.demand_accesses::cpu1.data            51473                       # number of demand (read+write) accesses
system.l2.demand_accesses::cpu2.inst             1204                       # number of demand (read+write) accesses
system.l2.demand_accesses::cpu2.data            51519                       # number of demand (read+write) accesses
system.l2.demand_accesses::cpu3.inst              799                       # number of demand (read+write) accesses
system.l2.demand_accesses::cpu3.data            51408                       # number of demand (read+write) accesses
system.l2.demand_accesses::total               255017                       # number of demand (read+write) accesses
system.l2.overall_accesses::cpu0.inst            9094                       # number of overall (read+write) accesses
system.l2.overall_accesses::cpu0.data           88370                       # number of overall (read+write) accesses
system.l2.overall_accesses::cpu1.inst            1150                       # number of overall (read+write) accesses
system.l2.overall_accesses::cpu1.data           51473                       # number of overall (read+write) accesses
system.l2.overall_accesses::cpu2.inst            1204                       # number of overall (read+write) accesses
system.l2.overall_accesses::cpu2.data           51519                       # number of overall (read+write) accesses
system.l2.overall_accesses::cpu3.inst             799                       # number of overall (read+write) accesses
system.l2.overall_accesses::cpu3.data           51408                       # number of overall (read+write) accesses
system.l2.overall_accesses::total              255017                       # number of overall (read+write) accesses
system.l2.ReadReq_miss_rate::cpu0.inst       0.311084                       # miss rate for ReadReq accesses
system.l2.ReadReq_miss_rate::cpu0.data       0.942637                       # miss rate for ReadReq accesses
system.l2.ReadReq_miss_rate::cpu1.inst       0.340000                       # miss rate for ReadReq accesses
system.l2.ReadReq_miss_rate::cpu1.data       0.953868                       # miss rate for ReadReq accesses
system.l2.ReadReq_miss_rate::cpu2.inst       0.144518                       # miss rate for ReadReq accesses
system.l2.ReadReq_miss_rate::cpu2.data       0.952112                       # miss rate for ReadReq accesses
system.l2.ReadReq_miss_rate::cpu3.inst       0.146433                       # miss rate for ReadReq accesses
system.l2.ReadReq_miss_rate::cpu3.data       0.954378                       # miss rate for ReadReq accesses
system.l2.ReadReq_miss_rate::total           0.902866                       # miss rate for ReadReq accesses
system.l2.UpgradeReq_miss_rate::cpu0.data     0.428571                       # miss rate for UpgradeReq accesses
system.l2.UpgradeReq_miss_rate::cpu2.data     0.666667                       # miss rate for UpgradeReq accesses
system.l2.UpgradeReq_miss_rate::total        0.357143                       # miss rate for UpgradeReq accesses
system.l2.SCUpgradeReq_miss_rate::cpu0.data     0.750000                       # miss rate for SCUpgradeReq accesses
system.l2.SCUpgradeReq_miss_rate::cpu2.data            1                       # miss rate for SCUpgradeReq accesses
system.l2.SCUpgradeReq_miss_rate::cpu3.data     0.500000                       # miss rate for SCUpgradeReq accesses
system.l2.SCUpgradeReq_miss_rate::total      0.636364                       # miss rate for SCUpgradeReq accesses
system.l2.ReadExReq_miss_rate::cpu0.data     0.996582                       # miss rate for ReadExReq accesses
system.l2.ReadExReq_miss_rate::cpu1.data     0.997422                       # miss rate for ReadExReq accesses
system.l2.ReadExReq_miss_rate::cpu2.data     0.997743                       # miss rate for ReadExReq accesses
system.l2.ReadExReq_miss_rate::cpu3.data     0.999516                       # miss rate for ReadExReq accesses
system.l2.ReadExReq_miss_rate::total         0.997302                       # miss rate for ReadExReq accesses
system.l2.demand_miss_rate::cpu0.inst        0.311084                       # miss rate for demand accesses
system.l2.demand_miss_rate::cpu0.data        0.971744                       # miss rate for demand accesses
system.l2.demand_miss_rate::cpu1.inst        0.340000                       # miss rate for demand accesses
system.l2.demand_miss_rate::cpu1.data        0.964370                       # miss rate for demand accesses
system.l2.demand_miss_rate::cpu2.inst        0.144518                       # miss rate for demand accesses
system.l2.demand_miss_rate::cpu2.data        0.963101                       # miss rate for demand accesses
system.l2.demand_miss_rate::cpu3.inst        0.146433                       # miss rate for demand accesses
system.l2.demand_miss_rate::cpu3.data        0.965258                       # miss rate for demand accesses
system.l2.demand_miss_rate::total            0.934302                       # miss rate for demand accesses
system.l2.overall_miss_rate::cpu0.inst       0.311084                       # miss rate for overall accesses
system.l2.overall_miss_rate::cpu0.data       0.971744                       # miss rate for overall accesses
system.l2.overall_miss_rate::cpu1.inst       0.340000                       # miss rate for overall accesses
system.l2.overall_miss_rate::cpu1.data       0.964370                       # miss rate for overall accesses
system.l2.overall_miss_rate::cpu2.inst       0.144518                       # miss rate for overall accesses
system.l2.overall_miss_rate::cpu2.data       0.963101                       # miss rate for overall accesses
system.l2.overall_miss_rate::cpu3.inst       0.146433                       # miss rate for overall accesses
system.l2.overall_miss_rate::cpu3.data       0.965258                       # miss rate for overall accesses
system.l2.overall_miss_rate::total           0.934302                       # miss rate for overall accesses
system.l2.ReadReq_avg_miss_latency::cpu0.inst 51990.809473                       # average ReadReq miss latency
system.l2.ReadReq_avg_miss_latency::cpu0.data 52901.653022                       # average ReadReq miss latency
system.l2.ReadReq_avg_miss_latency::cpu1.inst 51690.537084                       # average ReadReq miss latency
system.l2.ReadReq_avg_miss_latency::cpu1.data 52879.012346                       # average ReadReq miss latency
system.l2.ReadReq_avg_miss_latency::cpu2.inst 49982.758621                       # average ReadReq miss latency
system.l2.ReadReq_avg_miss_latency::cpu2.data 52905.770832                       # average ReadReq miss latency
system.l2.ReadReq_avg_miss_latency::cpu3.inst 51111.111111                       # average ReadReq miss latency
system.l2.ReadReq_avg_miss_latency::cpu3.data 52881.351380                       # average ReadReq miss latency
system.l2.ReadReq_avg_miss_latency::total 52867.708333                       # average ReadReq miss latency
system.l2.UpgradeReq_avg_miss_latency::cpu0.data 17333.333333                       # average UpgradeReq miss latency
system.l2.UpgradeReq_avg_miss_latency::cpu2.data        26500                       # average UpgradeReq miss latency
system.l2.UpgradeReq_avg_miss_latency::total        21000                       # average UpgradeReq miss latency
system.l2.ReadExReq_avg_miss_latency::cpu0.data 52980.891854                       # average ReadExReq miss latency
system.l2.ReadExReq_avg_miss_latency::cpu1.data 54236.610389                       # average ReadExReq miss latency
system.l2.ReadExReq_avg_miss_latency::cpu2.data 56086.275143                       # average ReadExReq miss latency
system.l2.ReadExReq_avg_miss_latency::cpu3.data 55843.775230                       # average ReadExReq miss latency
system.l2.ReadExReq_avg_miss_latency::total 54037.383509                       # average ReadExReq miss latency
system.l2.demand_avg_miss_latency::cpu0.inst 51990.809473                       # average overall miss latency
system.l2.demand_avg_miss_latency::cpu0.data 52945.500914                       # average overall miss latency
system.l2.demand_avg_miss_latency::cpu1.inst 51690.537084                       # average overall miss latency
system.l2.demand_avg_miss_latency::cpu1.data 53217.570862                       # average overall miss latency
system.l2.demand_avg_miss_latency::cpu2.inst 49982.758621                       # average overall miss latency
system.l2.demand_avg_miss_latency::cpu2.data 53699.262364                       # average overall miss latency
system.l2.demand_avg_miss_latency::cpu3.inst 51111.111111                       # average overall miss latency
system.l2.demand_avg_miss_latency::cpu3.data 53620.793197                       # average overall miss latency
system.l2.demand_avg_miss_latency::total 53283.333963                       # average overall miss latency
system.l2.overall_avg_miss_latency::cpu0.inst 51990.809473                       # average overall miss latency
system.l2.overall_avg_miss_latency::cpu0.data 52945.500914                       # average overall miss latency
system.l2.overall_avg_miss_latency::cpu1.inst 51690.537084                       # average overall miss latency
system.l2.overall_avg_miss_latency::cpu1.data 53217.570862                       # average overall miss latency
system.l2.overall_avg_miss_latency::cpu2.inst 49982.758621                       # average overall miss latency
system.l2.overall_avg_miss_latency::cpu2.data 53699.262364                       # average overall miss latency
system.l2.overall_avg_miss_latency::cpu3.inst 51111.111111                       # average overall miss latency
system.l2.overall_avg_miss_latency::cpu3.data 53620.793197                       # average overall miss latency
system.l2.overall_avg_miss_latency::total 53283.333963                       # average overall miss latency
system.l2.blocked_cycles::no_mshrs                  0                       # number of cycles access was blocked
system.l2.blocked_cycles::no_targets                0                       # number of cycles access was blocked
system.l2.blocked::no_mshrs                         0                       # number of cycles access was blocked
system.l2.blocked::no_targets                       0                       # number of cycles access was blocked
system.l2.avg_blocked_cycles::no_mshrs            nan                       # average number of cycles each access was blocked
system.l2.avg_blocked_cycles::no_targets          nan                       # average number of cycles each access was blocked
system.l2.fast_writes                               0                       # number of fast writes performed
system.l2.cache_copies                              0                       # number of cache copies performed
system.l2.writebacks::writebacks               115478                       # number of writebacks
system.l2.writebacks::total                    115478                       # number of writebacks
system.l2.ReadReq_mshr_hits::cpu0.inst             10                       # number of ReadReq MSHR hits
system.l2.ReadReq_mshr_hits::cpu0.data             17                       # number of ReadReq MSHR hits
system.l2.ReadReq_mshr_hits::cpu1.inst             20                       # number of ReadReq MSHR hits
system.l2.ReadReq_mshr_hits::cpu1.data             14                       # number of ReadReq MSHR hits
system.l2.ReadReq_mshr_hits::cpu2.inst             61                       # number of ReadReq MSHR hits
system.l2.ReadReq_mshr_hits::cpu2.data             27                       # number of ReadReq MSHR hits
system.l2.ReadReq_mshr_hits::cpu3.inst             16                       # number of ReadReq MSHR hits
system.l2.ReadReq_mshr_hits::cpu3.data             17                       # number of ReadReq MSHR hits
system.l2.ReadReq_mshr_hits::total                182                       # number of ReadReq MSHR hits
system.l2.demand_mshr_hits::cpu0.inst              10                       # number of demand (read+write) MSHR hits
system.l2.demand_mshr_hits::cpu0.data              17                       # number of demand (read+write) MSHR hits
system.l2.demand_mshr_hits::cpu1.inst              20                       # number of demand (read+write) MSHR hits
system.l2.demand_mshr_hits::cpu1.data              14                       # number of demand (read+write) MSHR hits
system.l2.demand_mshr_hits::cpu2.inst              61                       # number of demand (read+write) MSHR hits
system.l2.demand_mshr_hits::cpu2.data              27                       # number of demand (read+write) MSHR hits
system.l2.demand_mshr_hits::cpu3.inst              16                       # number of demand (read+write) MSHR hits
system.l2.demand_mshr_hits::cpu3.data              17                       # number of demand (read+write) MSHR hits
system.l2.demand_mshr_hits::total                 182                       # number of demand (read+write) MSHR hits
system.l2.overall_mshr_hits::cpu0.inst             10                       # number of overall MSHR hits
system.l2.overall_mshr_hits::cpu0.data             17                       # number of overall MSHR hits
system.l2.overall_mshr_hits::cpu1.inst             20                       # number of overall MSHR hits
system.l2.overall_mshr_hits::cpu1.data             14                       # number of overall MSHR hits
system.l2.overall_mshr_hits::cpu2.inst             61                       # number of overall MSHR hits
system.l2.overall_mshr_hits::cpu2.data             27                       # number of overall MSHR hits
system.l2.overall_mshr_hits::cpu3.inst             16                       # number of overall MSHR hits
system.l2.overall_mshr_hits::cpu3.data             17                       # number of overall MSHR hits
system.l2.overall_mshr_hits::total                182                       # number of overall MSHR hits
system.l2.ReadReq_mshr_misses::cpu0.inst         2819                       # number of ReadReq MSHR misses
system.l2.ReadReq_mshr_misses::cpu0.data        38337                       # number of ReadReq MSHR misses
system.l2.ReadReq_mshr_misses::cpu1.inst          371                       # number of ReadReq MSHR misses
system.l2.ReadReq_mshr_misses::cpu1.data        37246                       # number of ReadReq MSHR misses
system.l2.ReadReq_mshr_misses::cpu2.inst          113                       # number of ReadReq MSHR misses
system.l2.ReadReq_mshr_misses::cpu2.data        37212                       # number of ReadReq MSHR misses
system.l2.ReadReq_mshr_misses::cpu3.inst          101                       # number of ReadReq MSHR misses
system.l2.ReadReq_mshr_misses::cpu3.data        37219                       # number of ReadReq MSHR misses
system.l2.ReadReq_mshr_misses::total           153418                       # number of ReadReq MSHR misses
system.l2.UpgradeReq_mshr_misses::cpu0.data            3                       # number of UpgradeReq MSHR misses
system.l2.UpgradeReq_mshr_misses::cpu2.data            2                       # number of UpgradeReq MSHR misses
system.l2.UpgradeReq_mshr_misses::total             5                       # number of UpgradeReq MSHR misses
system.l2.SCUpgradeReq_mshr_misses::cpu0.data            3                       # number of SCUpgradeReq MSHR misses
system.l2.SCUpgradeReq_mshr_misses::cpu2.data            2                       # number of SCUpgradeReq MSHR misses
system.l2.SCUpgradeReq_mshr_misses::cpu3.data            2                       # number of SCUpgradeReq MSHR misses
system.l2.SCUpgradeReq_mshr_misses::total            7                       # number of SCUpgradeReq MSHR misses
system.l2.ReadExReq_mshr_misses::cpu0.data        47519                       # number of ReadExReq MSHR misses
system.l2.ReadExReq_mshr_misses::cpu1.data        12379                       # number of ReadExReq MSHR misses
system.l2.ReadExReq_mshr_misses::cpu2.data        12379                       # number of ReadExReq MSHR misses
system.l2.ReadExReq_mshr_misses::cpu3.data        12386                       # number of ReadExReq MSHR misses
system.l2.ReadExReq_mshr_misses::total          84663                       # number of ReadExReq MSHR misses
system.l2.demand_mshr_misses::cpu0.inst          2819                       # number of demand (read+write) MSHR misses
system.l2.demand_mshr_misses::cpu0.data         85856                       # number of demand (read+write) MSHR misses
system.l2.demand_mshr_misses::cpu1.inst           371                       # number of demand (read+write) MSHR misses
system.l2.demand_mshr_misses::cpu1.data         49625                       # number of demand (read+write) MSHR misses
system.l2.demand_mshr_misses::cpu2.inst           113                       # number of demand (read+write) MSHR misses
system.l2.demand_mshr_misses::cpu2.data         49591                       # number of demand (read+write) MSHR misses
system.l2.demand_mshr_misses::cpu3.inst           101                       # number of demand (read+write) MSHR misses
system.l2.demand_mshr_misses::cpu3.data         49605                       # number of demand (read+write) MSHR misses
system.l2.demand_mshr_misses::total            238081                       # number of demand (read+write) MSHR misses
system.l2.overall_mshr_misses::cpu0.inst         2819                       # number of overall MSHR misses
system.l2.overall_mshr_misses::cpu0.data        85856                       # number of overall MSHR misses
system.l2.overall_mshr_misses::cpu1.inst          371                       # number of overall MSHR misses
system.l2.overall_mshr_misses::cpu1.data        49625                       # number of overall MSHR misses
system.l2.overall_mshr_misses::cpu2.inst          113                       # number of overall MSHR misses
system.l2.overall_mshr_misses::cpu2.data        49591                       # number of overall MSHR misses
system.l2.overall_mshr_misses::cpu3.inst          101                       # number of overall MSHR misses
system.l2.overall_mshr_misses::cpu3.data        49605                       # number of overall MSHR misses
system.l2.overall_mshr_misses::total           238081                       # number of overall MSHR misses
system.l2.ReadReq_mshr_miss_latency::cpu0.inst    112906000                       # number of ReadReq MSHR miss cycles
system.l2.ReadReq_mshr_miss_latency::cpu0.data   1568367000                       # number of ReadReq MSHR miss cycles
system.l2.ReadReq_mshr_miss_latency::cpu1.inst     14930000                       # number of ReadReq MSHR miss cycles
system.l2.ReadReq_mshr_miss_latency::cpu1.data   1522825000                       # number of ReadReq MSHR miss cycles
system.l2.ReadReq_mshr_miss_latency::cpu2.inst      4567000                       # number of ReadReq MSHR miss cycles
system.l2.ReadReq_mshr_miss_latency::cpu2.data   1522452000                       # number of ReadReq MSHR miss cycles
system.l2.ReadReq_mshr_miss_latency::cpu3.inst      4091000                       # number of ReadReq MSHR miss cycles
system.l2.ReadReq_mshr_miss_latency::cpu3.data   1521825000                       # number of ReadReq MSHR miss cycles
system.l2.ReadReq_mshr_miss_latency::total   6271963000                       # number of ReadReq MSHR miss cycles
system.l2.UpgradeReq_mshr_miss_latency::cpu0.data       120000                       # number of UpgradeReq MSHR miss cycles
system.l2.UpgradeReq_mshr_miss_latency::cpu2.data        81000                       # number of UpgradeReq MSHR miss cycles
system.l2.UpgradeReq_mshr_miss_latency::total       201000                       # number of UpgradeReq MSHR miss cycles
system.l2.SCUpgradeReq_mshr_miss_latency::cpu0.data       120000                       # number of SCUpgradeReq MSHR miss cycles
system.l2.SCUpgradeReq_mshr_miss_latency::cpu2.data        81000                       # number of SCUpgradeReq MSHR miss cycles
system.l2.SCUpgradeReq_mshr_miss_latency::cpu3.data        80000                       # number of SCUpgradeReq MSHR miss cycles
system.l2.SCUpgradeReq_mshr_miss_latency::total       281000                       # number of SCUpgradeReq MSHR miss cycles
system.l2.ReadExReq_mshr_miss_latency::cpu0.data   1947371000                       # number of ReadExReq MSHR miss cycles
system.l2.ReadExReq_mshr_miss_latency::cpu1.data    522847000                       # number of ReadExReq MSHR miss cycles
system.l2.ReadExReq_mshr_miss_latency::cpu2.data    545744000                       # number of ReadExReq MSHR miss cycles
system.l2.ReadExReq_mshr_miss_latency::cpu3.data    543049000                       # number of ReadExReq MSHR miss cycles
system.l2.ReadExReq_mshr_miss_latency::total   3559011000                       # number of ReadExReq MSHR miss cycles
system.l2.demand_mshr_miss_latency::cpu0.inst    112906000                       # number of demand (read+write) MSHR miss cycles
system.l2.demand_mshr_miss_latency::cpu0.data   3515738000                       # number of demand (read+write) MSHR miss cycles
system.l2.demand_mshr_miss_latency::cpu1.inst     14930000                       # number of demand (read+write) MSHR miss cycles
system.l2.demand_mshr_miss_latency::cpu1.data   2045672000                       # number of demand (read+write) MSHR miss cycles
system.l2.demand_mshr_miss_latency::cpu2.inst      4567000                       # number of demand (read+write) MSHR miss cycles
system.l2.demand_mshr_miss_latency::cpu2.data   2068196000                       # number of demand (read+write) MSHR miss cycles
system.l2.demand_mshr_miss_latency::cpu3.inst      4091000                       # number of demand (read+write) MSHR miss cycles
system.l2.demand_mshr_miss_latency::cpu3.data   2064874000                       # number of demand (read+write) MSHR miss cycles
system.l2.demand_mshr_miss_latency::total   9830974000                       # number of demand (read+write) MSHR miss cycles
system.l2.overall_mshr_miss_latency::cpu0.inst    112906000                       # number of overall MSHR miss cycles
system.l2.overall_mshr_miss_latency::cpu0.data   3515738000                       # number of overall MSHR miss cycles
system.l2.overall_mshr_miss_latency::cpu1.inst     14930000                       # number of overall MSHR miss cycles
system.l2.overall_mshr_miss_latency::cpu1.data   2045672000                       # number of overall MSHR miss cycles
system.l2.overall_mshr_miss_latency::cpu2.inst      4567000                       # number of overall MSHR miss cycles
system.l2.overall_mshr_miss_latency::cpu2.data   2068196000                       # number of overall MSHR miss cycles
system.l2.overall_mshr_miss_latency::cpu3.inst      4091000                       # number of overall MSHR miss cycles
system.l2.overall_mshr_miss_latency::cpu3.data   2064874000                       # number of overall MSHR miss cycles
system.l2.overall_mshr_miss_latency::total   9830974000                       # number of overall MSHR miss cycles
system.l2.ReadReq_mshr_miss_rate::cpu0.inst     0.309985                       # mshr miss rate for ReadReq accesses
system.l2.ReadReq_mshr_miss_rate::cpu0.data     0.942219                       # mshr miss rate for ReadReq accesses
system.l2.ReadReq_mshr_miss_rate::cpu1.inst     0.322609                       # mshr miss rate for ReadReq accesses
system.l2.ReadReq_mshr_miss_rate::cpu1.data     0.953510                       # mshr miss rate for ReadReq accesses
system.l2.ReadReq_mshr_miss_rate::cpu2.inst     0.093854                       # mshr miss rate for ReadReq accesses
system.l2.ReadReq_mshr_miss_rate::cpu2.data     0.951422                       # mshr miss rate for ReadReq accesses
system.l2.ReadReq_mshr_miss_rate::cpu3.inst     0.126408                       # mshr miss rate for ReadReq accesses
system.l2.ReadReq_mshr_miss_rate::cpu3.data     0.953942                       # mshr miss rate for ReadReq accesses
system.l2.ReadReq_mshr_miss_rate::total      0.901796                       # mshr miss rate for ReadReq accesses
system.l2.UpgradeReq_mshr_miss_rate::cpu0.data     0.428571                       # mshr miss rate for UpgradeReq accesses
system.l2.UpgradeReq_mshr_miss_rate::cpu2.data     0.666667                       # mshr miss rate for UpgradeReq accesses
system.l2.UpgradeReq_mshr_miss_rate::total     0.357143                       # mshr miss rate for UpgradeReq accesses
system.l2.SCUpgradeReq_mshr_miss_rate::cpu0.data     0.750000                       # mshr miss rate for SCUpgradeReq accesses
system.l2.SCUpgradeReq_mshr_miss_rate::cpu2.data            1                       # mshr miss rate for SCUpgradeReq accesses
system.l2.SCUpgradeReq_mshr_miss_rate::cpu3.data     0.500000                       # mshr miss rate for SCUpgradeReq accesses
system.l2.SCUpgradeReq_mshr_miss_rate::total     0.636364                       # mshr miss rate for SCUpgradeReq accesses
system.l2.ReadExReq_mshr_miss_rate::cpu0.data     0.996582                       # mshr miss rate for ReadExReq accesses
system.l2.ReadExReq_mshr_miss_rate::cpu1.data     0.997422                       # mshr miss rate for ReadExReq accesses
system.l2.ReadExReq_mshr_miss_rate::cpu2.data     0.997743                       # mshr miss rate for ReadExReq accesses
system.l2.ReadExReq_mshr_miss_rate::cpu3.data     0.999516                       # mshr miss rate for ReadExReq accesses
system.l2.ReadExReq_mshr_miss_rate::total     0.997302                       # mshr miss rate for ReadExReq accesses
system.l2.demand_mshr_miss_rate::cpu0.inst     0.309985                       # mshr miss rate for demand accesses
system.l2.demand_mshr_miss_rate::cpu0.data     0.971551                       # mshr miss rate for demand accesses
system.l2.demand_mshr_miss_rate::cpu1.inst     0.322609                       # mshr miss rate for demand accesses
system.l2.demand_mshr_miss_rate::cpu1.data     0.964098                       # mshr miss rate for demand accesses
system.l2.demand_mshr_miss_rate::cpu2.inst     0.093854                       # mshr miss rate for demand accesses
system.l2.demand_mshr_miss_rate::cpu2.data     0.962577                       # mshr miss rate for demand accesses
system.l2.demand_mshr_miss_rate::cpu3.inst     0.126408                       # mshr miss rate for demand accesses
system.l2.demand_mshr_miss_rate::cpu3.data     0.964928                       # mshr miss rate for demand accesses
system.l2.demand_mshr_miss_rate::total       0.933589                       # mshr miss rate for demand accesses
system.l2.overall_mshr_miss_rate::cpu0.inst     0.309985                       # mshr miss rate for overall accesses
system.l2.overall_mshr_miss_rate::cpu0.data     0.971551                       # mshr miss rate for overall accesses
system.l2.overall_mshr_miss_rate::cpu1.inst     0.322609                       # mshr miss rate for overall accesses
system.l2.overall_mshr_miss_rate::cpu1.data     0.964098                       # mshr miss rate for overall accesses
system.l2.overall_mshr_miss_rate::cpu2.inst     0.093854                       # mshr miss rate for overall accesses
system.l2.overall_mshr_miss_rate::cpu2.data     0.962577                       # mshr miss rate for overall accesses
system.l2.overall_mshr_miss_rate::cpu3.inst     0.126408                       # mshr miss rate for overall accesses
system.l2.overall_mshr_miss_rate::cpu3.data     0.964928                       # mshr miss rate for overall accesses
system.l2.overall_mshr_miss_rate::total      0.933589                       # mshr miss rate for overall accesses
system.l2.ReadReq_avg_mshr_miss_latency::cpu0.inst 40051.791415                       # average ReadReq mshr miss latency
system.l2.ReadReq_avg_mshr_miss_latency::cpu0.data 40910.008608                       # average ReadReq mshr miss latency
system.l2.ReadReq_avg_mshr_miss_latency::cpu1.inst 40242.587601                       # average ReadReq mshr miss latency
system.l2.ReadReq_avg_mshr_miss_latency::cpu1.data 40885.598454                       # average ReadReq mshr miss latency
system.l2.ReadReq_avg_mshr_miss_latency::cpu2.inst 40415.929204                       # average ReadReq mshr miss latency
system.l2.ReadReq_avg_mshr_miss_latency::cpu2.data 40912.931312                       # average ReadReq mshr miss latency
system.l2.ReadReq_avg_mshr_miss_latency::cpu3.inst 40504.950495                       # average ReadReq mshr miss latency
system.l2.ReadReq_avg_mshr_miss_latency::cpu3.data 40888.390338                       # average ReadReq mshr miss latency
system.l2.ReadReq_avg_mshr_miss_latency::total 40881.532806                       # average ReadReq mshr miss latency
system.l2.UpgradeReq_avg_mshr_miss_latency::cpu0.data        40000                       # average UpgradeReq mshr miss latency
system.l2.UpgradeReq_avg_mshr_miss_latency::cpu2.data        40500                       # average UpgradeReq mshr miss latency
system.l2.UpgradeReq_avg_mshr_miss_latency::total        40200                       # average UpgradeReq mshr miss latency
system.l2.SCUpgradeReq_avg_mshr_miss_latency::cpu0.data        40000                       # average SCUpgradeReq mshr miss latency
system.l2.SCUpgradeReq_avg_mshr_miss_latency::cpu2.data        40500                       # average SCUpgradeReq mshr miss latency
system.l2.SCUpgradeReq_avg_mshr_miss_latency::cpu3.data        40000                       # average SCUpgradeReq mshr miss latency
system.l2.SCUpgradeReq_avg_mshr_miss_latency::total 40142.857143                       # average SCUpgradeReq mshr miss latency
system.l2.ReadExReq_avg_mshr_miss_latency::cpu0.data 40980.891854                       # average ReadExReq mshr miss latency
system.l2.ReadExReq_avg_mshr_miss_latency::cpu1.data 42236.610389                       # average ReadExReq mshr miss latency
system.l2.ReadExReq_avg_mshr_miss_latency::cpu2.data 44086.275143                       # average ReadExReq mshr miss latency
system.l2.ReadExReq_avg_mshr_miss_latency::cpu3.data 43843.775230                       # average ReadExReq mshr miss latency
system.l2.ReadExReq_avg_mshr_miss_latency::total 42037.383509                       # average ReadExReq mshr miss latency
system.l2.demand_avg_mshr_miss_latency::cpu0.inst 40051.791415                       # average overall mshr miss latency
system.l2.demand_avg_mshr_miss_latency::cpu0.data 40949.240589                       # average overall mshr miss latency
system.l2.demand_avg_mshr_miss_latency::cpu1.inst 40242.587601                       # average overall mshr miss latency
system.l2.demand_avg_mshr_miss_latency::cpu1.data 41222.609572                       # average overall mshr miss latency
system.l2.demand_avg_mshr_miss_latency::cpu2.inst 40415.929204                       # average overall mshr miss latency
system.l2.demand_avg_mshr_miss_latency::cpu2.data 41705.067452                       # average overall mshr miss latency
system.l2.demand_avg_mshr_miss_latency::cpu3.inst 40504.950495                       # average overall mshr miss latency
system.l2.demand_avg_mshr_miss_latency::cpu3.data 41626.327991                       # average overall mshr miss latency
system.l2.demand_avg_mshr_miss_latency::total 41292.560095                       # average overall mshr miss latency
system.l2.overall_avg_mshr_miss_latency::cpu0.inst 40051.791415                       # average overall mshr miss latency
system.l2.overall_avg_mshr_miss_latency::cpu0.data 40949.240589                       # average overall mshr miss latency
system.l2.overall_avg_mshr_miss_latency::cpu1.inst 40242.587601                       # average overall mshr miss latency
system.l2.overall_avg_mshr_miss_latency::cpu1.data 41222.609572                       # average overall mshr miss latency
system.l2.overall_avg_mshr_miss_latency::cpu2.inst 40415.929204                       # average overall mshr miss latency
system.l2.overall_avg_mshr_miss_latency::cpu2.data 41705.067452                       # average overall mshr miss latency
system.l2.overall_avg_mshr_miss_latency::cpu3.inst 40504.950495                       # average overall mshr miss latency
system.l2.overall_avg_mshr_miss_latency::cpu3.data 41626.327991                       # average overall mshr miss latency
system.l2.overall_avg_mshr_miss_latency::total 41292.560095                       # average overall mshr miss latency
system.l2.no_allocate_misses                        0                       # Number of misses that were no-allocate
system.cpu0.dtb.fetch_hits                          0                       # ITB hits
system.cpu0.dtb.fetch_misses                        0                       # ITB misses
system.cpu0.dtb.fetch_acv                           0                       # ITB acv
system.cpu0.dtb.fetch_accesses                      0                       # ITB accesses
system.cpu0.dtb.read_hits                     7330377                       # DTB read hits
system.cpu0.dtb.read_misses                      9567                       # DTB read misses
system.cpu0.dtb.read_acv                            0                       # DTB read access violations
system.cpu0.dtb.read_accesses                 7339944                       # DTB read accesses
system.cpu0.dtb.write_hits                    3533232                       # DTB write hits
system.cpu0.dtb.write_misses                     4437                       # DTB write misses
system.cpu0.dtb.write_acv                           0                       # DTB write access violations
system.cpu0.dtb.write_accesses                3537669                       # DTB write accesses
system.cpu0.dtb.data_hits                    10863609                       # DTB hits
system.cpu0.dtb.data_misses                     14004                       # DTB misses
system.cpu0.dtb.data_acv                            0                       # DTB access violations
system.cpu0.dtb.data_accesses                10877613                       # DTB accesses
system.cpu0.itb.fetch_hits                    4781250                       # ITB hits
system.cpu0.itb.fetch_misses                      214                       # ITB misses
system.cpu0.itb.fetch_acv                           0                       # ITB acv
system.cpu0.itb.fetch_accesses                4781464                       # ITB accesses
system.cpu0.itb.read_hits                           0                       # DTB read hits
system.cpu0.itb.read_misses                         0                       # DTB read misses
system.cpu0.itb.read_acv                            0                       # DTB read access violations
system.cpu0.itb.read_accesses                       0                       # DTB read accesses
system.cpu0.itb.write_hits                          0                       # DTB write hits
system.cpu0.itb.write_misses                        0                       # DTB write misses
system.cpu0.itb.write_acv                           0                       # DTB write access violations
system.cpu0.itb.write_accesses                      0                       # DTB write accesses
system.cpu0.itb.data_hits                           0                       # DTB hits
system.cpu0.itb.data_misses                         0                       # DTB misses
system.cpu0.itb.data_acv                            0                       # DTB access violations
system.cpu0.itb.data_accesses                       0                       # DTB accesses
system.cpu0.numCycles                        18729004                       # number of cpu cycles simulated
system.cpu0.numWorkItemsStarted                     0                       # number of work items this cpu started
system.cpu0.numWorkItemsCompleted                   0                       # number of work items this cpu completed
system.cpu0.BPredUnit.lookups                 3282491                       # Number of BP lookups
system.cpu0.BPredUnit.condPredicted           1550583                       # Number of conditional branches predicted
system.cpu0.BPredUnit.condIncorrect             17214                       # Number of conditional branches incorrect
system.cpu0.BPredUnit.BTBLookups              2046194                       # Number of BTB lookups
system.cpu0.BPredUnit.BTBHits                 1892309                       # Number of BTB hits
system.cpu0.BPredUnit.BTBCorrect                    0                       # Number of correct BTB predictions (this stat may not work properly.
system.cpu0.BPredUnit.usedRAS                  862357                       # Number of times the RAS was used to get a target.
system.cpu0.BPredUnit.RASInCorrect                593                       # Number of incorrect RAS predictions.
system.cpu0.fetch.icacheStallCycles            136667                       # Number of cycles fetch is stalled on an Icache miss
system.cpu0.fetch.Insts                      42071383                       # Number of instructions fetch has processed
system.cpu0.fetch.Branches                    3282491                       # Number of branches that fetch encountered
system.cpu0.fetch.predictedBranches           2754666                       # Number of branches that fetch has predicted taken
system.cpu0.fetch.Cycles                      6961658                       # Number of cycles fetch has run and was not squashing or blocked
system.cpu0.fetch.SquashCycles                 116678                       # Number of cycles fetch has spent squashing
system.cpu0.fetch.BlockedCycles              11466688                       # Number of cycles fetch has spent blocked
system.cpu0.fetch.MiscStallCycles                 103                       # Number of cycles fetch has spent waiting on interrupts, or bad addresses, or out of MSHRs
system.cpu0.fetch.PendingTrapStallCycles         3730                       # Number of stall cycles due to pending traps
system.cpu0.fetch.CacheLines                  4781250                       # Number of cache lines fetched
system.cpu0.fetch.IcacheSquashes                 3862                       # Number of outstanding Icache misses that were squashed
system.cpu0.fetch.rateDist::samples          18664784                       # Number of instructions fetched each cycle (Total)
system.cpu0.fetch.rateDist::mean             2.254051                       # Number of instructions fetched each cycle (Total)
system.cpu0.fetch.rateDist::stdev            3.237333                       # Number of instructions fetched each cycle (Total)
system.cpu0.fetch.rateDist::underflows              0      0.00%      0.00% # Number of instructions fetched each cycle (Total)
system.cpu0.fetch.rateDist::0                11703126     62.70%     62.70% # Number of instructions fetched each cycle (Total)
system.cpu0.fetch.rateDist::1                  394710      2.11%     64.82% # Number of instructions fetched each cycle (Total)
system.cpu0.fetch.rateDist::2                  289604      1.55%     66.37% # Number of instructions fetched each cycle (Total)
system.cpu0.fetch.rateDist::3                  250062      1.34%     67.71% # Number of instructions fetched each cycle (Total)
system.cpu0.fetch.rateDist::4                 1273777      6.82%     74.53% # Number of instructions fetched each cycle (Total)
system.cpu0.fetch.rateDist::5                  421619      2.26%     76.79% # Number of instructions fetched each cycle (Total)
system.cpu0.fetch.rateDist::6                  571940      3.06%     79.86% # Number of instructions fetched each cycle (Total)
system.cpu0.fetch.rateDist::7                  367132      1.97%     81.82% # Number of instructions fetched each cycle (Total)
system.cpu0.fetch.rateDist::8                 3392814     18.18%    100.00% # Number of instructions fetched each cycle (Total)
system.cpu0.fetch.rateDist::overflows               0      0.00%    100.00% # Number of instructions fetched each cycle (Total)
system.cpu0.fetch.rateDist::min_value               0                       # Number of instructions fetched each cycle (Total)
system.cpu0.fetch.rateDist::max_value               8                       # Number of instructions fetched each cycle (Total)
system.cpu0.fetch.rateDist::total            18664784                       # Number of instructions fetched each cycle (Total)
system.cpu0.fetch.branchRate                 0.175262                       # Number of branch fetches per cycle
system.cpu0.fetch.rate                       2.246322                       # Number of inst fetches per cycle
system.cpu0.decode.IdleCycles                 1027824                       # Number of cycles decode is idle
system.cpu0.decode.BlockedCycles             10595547                       # Number of cycles decode is blocked
system.cpu0.decode.RunCycles                  6102978                       # Number of cycles decode is running
system.cpu0.decode.UnblockCycles               843924                       # Number of cycles decode is unblocking
system.cpu0.decode.SquashCycles                 94511                       # Number of cycles decode is squashing
system.cpu0.decode.BranchResolved              735674                       # Number of times decode resolved a branch
system.cpu0.decode.BranchMispred                 1459                       # Number of times decode detected a branch misprediction
system.cpu0.decode.DecodedInsts              41976467                       # Number of instructions handled by decode
system.cpu0.decode.SquashedInsts                 5974                       # Number of squashed instructions handled by decode
system.cpu0.rename.SquashCycles                 94511                       # Number of cycles rename is squashing
system.cpu0.rename.IdleCycles                 1782676                       # Number of cycles rename is idle
system.cpu0.rename.BlockCycles                1381111                       # Number of cycles rename is blocking
system.cpu0.rename.serializeStallCycles       7145376                       # count of cycles rename stalled for serializing inst
system.cpu0.rename.RunCycles                  6179022                       # Number of cycles rename is running
system.cpu0.rename.UnblockCycles              2082088                       # Number of cycles rename is unblocking
system.cpu0.rename.RenamedInsts              41884147                       # Number of instructions processed by rename
system.cpu0.rename.ROBFullEvents                14958                       # Number of times rename has blocked due to ROB full
system.cpu0.rename.IQFullEvents                101871                       # Number of times rename has blocked due to IQ full
system.cpu0.rename.LSQFullEvents              1298647                       # Number of times rename has blocked due to LSQ full
system.cpu0.rename.RenamedOperands           32910995                       # Number of destination operands rename has renamed
system.cpu0.rename.RenameLookups             55901642                       # Number of register rename lookups that rename has made
system.cpu0.rename.int_rename_lookups        38142320                       # Number of integer rename lookups
system.cpu0.rename.fp_rename_lookups         17759322                       # Number of floating rename lookups
system.cpu0.rename.CommittedMaps             32284484                       # Number of HB maps that are committed
system.cpu0.rename.UndoneMaps                  626511                       # Number of HB maps that are undone due to squashing
system.cpu0.rename.serializingInsts            132320                       # count of serializing insts renamed
system.cpu0.rename.tempSerializingInsts           874                       # count of temporary serializing insts renamed
system.cpu0.rename.skidInsts                  8577533                       # count of insts added to the skid buffer
system.cpu0.memDep0.insertedLoads             7375553                       # Number of loads inserted to the mem dependence unit.
system.cpu0.memDep0.insertedStores            3580915                       # Number of stores inserted to the mem dependence unit.
system.cpu0.memDep0.conflictingLoads          1421269                       # Number of conflicting loads.
system.cpu0.memDep0.conflictingStores          268836                       # Number of conflicting stores.
system.cpu0.iq.iqInstsAdded                  39032181                       # Number of instructions added to the IQ (excludes non-spec)
system.cpu0.iq.iqNonSpecInstsAdded               1382                       # Number of non-speculative instructions added to the IQ
system.cpu0.iq.iqInstsIssued                 38824974                       # Number of instructions issued
system.cpu0.iq.iqSquashedInstsIssued            27321                       # Number of squashed instructions issued
system.cpu0.iq.iqSquashedInstsExamined         686749                       # Number of squashed instructions iterated over during squash; mainly for profiling
system.cpu0.iq.iqSquashedOperandsExamined       395693                       # Number of squashed operands that are examined and possibly removed from graph
system.cpu0.iq.iqSquashedNonSpecRemoved           227                       # Number of squashed non-spec instructions that were removed
system.cpu0.iq.issued_per_cycle::samples     18664784                       # Number of insts issued each cycle
system.cpu0.iq.issued_per_cycle::mean        2.080119                       # Number of insts issued each cycle
system.cpu0.iq.issued_per_cycle::stdev       1.915082                       # Number of insts issued each cycle
system.cpu0.iq.issued_per_cycle::underflows            0      0.00%      0.00% # Number of insts issued each cycle
system.cpu0.iq.issued_per_cycle::0            5575085     29.87%     29.87% # Number of insts issued each cycle
system.cpu0.iq.issued_per_cycle::1            2765480     14.82%     44.69% # Number of insts issued each cycle
system.cpu0.iq.issued_per_cycle::2            3028946     16.23%     60.91% # Number of insts issued each cycle
system.cpu0.iq.issued_per_cycle::3            2881675     15.44%     76.35% # Number of insts issued each cycle
system.cpu0.iq.issued_per_cycle::4            2315219     12.40%     88.76% # Number of insts issued each cycle
system.cpu0.iq.issued_per_cycle::5            1049753      5.62%     94.38% # Number of insts issued each cycle
system.cpu0.iq.issued_per_cycle::6             564885      3.03%     97.41% # Number of insts issued each cycle
system.cpu0.iq.issued_per_cycle::7             412302      2.21%     99.62% # Number of insts issued each cycle
system.cpu0.iq.issued_per_cycle::8              71439      0.38%    100.00% # Number of insts issued each cycle
system.cpu0.iq.issued_per_cycle::overflows            0      0.00%    100.00% # Number of insts issued each cycle
system.cpu0.iq.issued_per_cycle::min_value            0                       # Number of insts issued each cycle
system.cpu0.iq.issued_per_cycle::max_value            8                       # Number of insts issued each cycle
system.cpu0.iq.issued_per_cycle::total       18664784                       # Number of insts issued each cycle
system.cpu0.iq.fu_full::No_OpClass                  0      0.00%      0.00% # attempts to use FU when none available
system.cpu0.iq.fu_full::IntAlu                  63913      8.73%      8.73% # attempts to use FU when none available
system.cpu0.iq.fu_full::IntMult                262149     35.80%     44.53% # attempts to use FU when none available
system.cpu0.iq.fu_full::IntDiv                      0      0.00%     44.53% # attempts to use FU when none available
system.cpu0.iq.fu_full::FloatAdd                 5471      0.75%     45.27% # attempts to use FU when none available
system.cpu0.iq.fu_full::FloatCmp                    0      0.00%     45.27% # attempts to use FU when none available
system.cpu0.iq.fu_full::FloatCvt                    0      0.00%     45.27% # attempts to use FU when none available
system.cpu0.iq.fu_full::FloatMult              294996     40.28%     85.56% # attempts to use FU when none available
system.cpu0.iq.fu_full::FloatDiv                    1      0.00%     85.56% # attempts to use FU when none available
system.cpu0.iq.fu_full::FloatSqrt                   0      0.00%     85.56% # attempts to use FU when none available
system.cpu0.iq.fu_full::SimdAdd                     0      0.00%     85.56% # attempts to use FU when none available
system.cpu0.iq.fu_full::SimdAddAcc                  0      0.00%     85.56% # attempts to use FU when none available
system.cpu0.iq.fu_full::SimdAlu                     0      0.00%     85.56% # attempts to use FU when none available
system.cpu0.iq.fu_full::SimdCmp                     0      0.00%     85.56% # attempts to use FU when none available
system.cpu0.iq.fu_full::SimdCvt                     0      0.00%     85.56% # attempts to use FU when none available
system.cpu0.iq.fu_full::SimdMisc                    0      0.00%     85.56% # attempts to use FU when none available
system.cpu0.iq.fu_full::SimdMult                    0      0.00%     85.56% # attempts to use FU when none available
system.cpu0.iq.fu_full::SimdMultAcc                 0      0.00%     85.56% # attempts to use FU when none available
system.cpu0.iq.fu_full::SimdShift                   0      0.00%     85.56% # attempts to use FU when none available
system.cpu0.iq.fu_full::SimdShiftAcc                0      0.00%     85.56% # attempts to use FU when none available
system.cpu0.iq.fu_full::SimdSqrt                    0      0.00%     85.56% # attempts to use FU when none available
system.cpu0.iq.fu_full::SimdFloatAdd                0      0.00%     85.56% # attempts to use FU when none available
system.cpu0.iq.fu_full::SimdFloatAlu                0      0.00%     85.56% # attempts to use FU when none available
system.cpu0.iq.fu_full::SimdFloatCmp                0      0.00%     85.56% # attempts to use FU when none available
system.cpu0.iq.fu_full::SimdFloatCvt                0      0.00%     85.56% # attempts to use FU when none available
system.cpu0.iq.fu_full::SimdFloatDiv                0      0.00%     85.56% # attempts to use FU when none available
system.cpu0.iq.fu_full::SimdFloatMisc               0      0.00%     85.56% # attempts to use FU when none available
system.cpu0.iq.fu_full::SimdFloatMult               0      0.00%     85.56% # attempts to use FU when none available
system.cpu0.iq.fu_full::SimdFloatMultAcc            0      0.00%     85.56% # attempts to use FU when none available
system.cpu0.iq.fu_full::SimdFloatSqrt               0      0.00%     85.56% # attempts to use FU when none available
system.cpu0.iq.fu_full::MemRead                 91132     12.44%     98.00% # attempts to use FU when none available
system.cpu0.iq.fu_full::MemWrite                14649      2.00%    100.00% # attempts to use FU when none available
system.cpu0.iq.fu_full::IprAccess                   0      0.00%    100.00% # attempts to use FU when none available
system.cpu0.iq.fu_full::InstPrefetch                0      0.00%    100.00% # attempts to use FU when none available
system.cpu0.iq.FU_type_0::No_OpClass                0      0.00%      0.00% # Type of FU issued
system.cpu0.iq.FU_type_0::IntAlu             21068194     54.26%     54.26% # Type of FU issued
system.cpu0.iq.FU_type_0::IntMult              787044      2.03%     56.29% # Type of FU issued
system.cpu0.iq.FU_type_0::IntDiv                    0      0.00%     56.29% # Type of FU issued
system.cpu0.iq.FU_type_0::FloatAdd            3048350      7.85%     64.14% # Type of FU issued
system.cpu0.iq.FU_type_0::FloatCmp                 13      0.00%     64.14% # Type of FU issued
system.cpu0.iq.FU_type_0::FloatCvt                  0      0.00%     64.14% # Type of FU issued
system.cpu0.iq.FU_type_0::FloatMult           3028339      7.80%     71.94% # Type of FU issued
system.cpu0.iq.FU_type_0::FloatDiv                 71      0.00%     71.94% # Type of FU issued
system.cpu0.iq.FU_type_0::FloatSqrt                 0      0.00%     71.94% # Type of FU issued
system.cpu0.iq.FU_type_0::SimdAdd                   0      0.00%     71.94% # Type of FU issued
system.cpu0.iq.FU_type_0::SimdAddAcc                0      0.00%     71.94% # Type of FU issued
system.cpu0.iq.FU_type_0::SimdAlu                   0      0.00%     71.94% # Type of FU issued
system.cpu0.iq.FU_type_0::SimdCmp                   0      0.00%     71.94% # Type of FU issued
[...]
system.cpu3.icache.overall_mshr_miss_latency::total     14381000                       # number of overall MSHR miss cycles
system.cpu3.icache.ReadReq_mshr_miss_rate::cpu3.inst     0.001132                       # mshr miss rate for ReadReq accesses
system.cpu3.icache.ReadReq_mshr_miss_rate::total     0.001132                       # mshr miss rate for ReadReq accesses
system.cpu3.icache.demand_mshr_miss_rate::cpu3.inst     0.001132                       # mshr miss rate for demand accesses
system.cpu3.icache.demand_mshr_miss_rate::total     0.001132                       # mshr miss rate for demand accesses
system.cpu3.icache.overall_mshr_miss_rate::cpu3.inst     0.001132                       # mshr miss rate for overall accesses
system.cpu3.icache.overall_mshr_miss_rate::total     0.001132                       # mshr miss rate for overall accesses
system.cpu3.icache.ReadReq_avg_mshr_miss_latency::cpu3.inst 17998.748436                       # average ReadReq mshr miss latency
system.cpu3.icache.ReadReq_avg_mshr_miss_latency::total 17998.748436                       # average ReadReq mshr miss latency
system.cpu3.icache.demand_avg_mshr_miss_latency::cpu3.inst 17998.748436                       # average overall mshr miss latency
system.cpu3.icache.demand_avg_mshr_miss_latency::total 17998.748436                       # average overall mshr miss latency
system.cpu3.icache.overall_avg_mshr_miss_latency::cpu3.inst 17998.748436                       # average overall mshr miss latency
system.cpu3.icache.overall_avg_mshr_miss_latency::total 17998.748436                       # average overall mshr miss latency
system.cpu3.icache.no_allocate_misses               0                       # Number of misses that were no-allocate
system.cpu3.dcache.replacements                 51185                       # number of replacements
system.cpu3.dcache.tagsinuse                44.918422                       # Cycle average of tags in use
system.cpu3.dcache.total_refs                 1649490                       # Total number of references to valid blocks.
system.cpu3.dcache.sampled_refs                 51435                       # Sample count of references to valid blocks.
system.cpu3.dcache.avg_refs                 32.069408                       # Average number of references to valid blocks.
system.cpu3.dcache.warmup_cycle           15484616000                       # Cycle when the warmup percentage was hit.
system.cpu3.dcache.occ_blocks::cpu3.data    44.918422                       # Average occupied blocks per requestor
system.cpu3.dcache.occ_percent::cpu3.data     0.175463                       # Average percentage of cache occupancy
system.cpu3.dcache.occ_percent::total        0.175463                       # Average percentage of cache occupancy
system.cpu3.dcache.ReadReq_hits::cpu3.data       923772                       # number of ReadReq hits
system.cpu3.dcache.ReadReq_hits::total         923772                       # number of ReadReq hits
system.cpu3.dcache.WriteReq_hits::cpu3.data       725649                       # number of WriteReq hits
system.cpu3.dcache.WriteReq_hits::total        725649                       # number of WriteReq hits
system.cpu3.dcache.LoadLockedReq_hits::cpu3.data           23                       # number of LoadLockedReq hits
system.cpu3.dcache.LoadLockedReq_hits::total           23                       # number of LoadLockedReq hits
system.cpu3.dcache.StoreCondReq_hits::cpu3.data           16                       # number of StoreCondReq hits
system.cpu3.dcache.StoreCondReq_hits::total           16                       # number of StoreCondReq hits
system.cpu3.dcache.demand_hits::cpu3.data      1649421                       # number of demand (read+write) hits
system.cpu3.dcache.demand_hits::total         1649421                       # number of demand (read+write) hits
system.cpu3.dcache.overall_hits::cpu3.data      1649421                       # number of overall hits
system.cpu3.dcache.overall_hits::total        1649421                       # number of overall hits
system.cpu3.dcache.ReadReq_misses::cpu3.data       219776                       # number of ReadReq misses
system.cpu3.dcache.ReadReq_misses::total       219776                       # number of ReadReq misses
system.cpu3.dcache.WriteReq_misses::cpu3.data        25257                       # number of WriteReq misses
system.cpu3.dcache.WriteReq_misses::total        25257                       # number of WriteReq misses
system.cpu3.dcache.LoadLockedReq_misses::cpu3.data            8                       # number of LoadLockedReq misses
system.cpu3.dcache.LoadLockedReq_misses::total            8                       # number of LoadLockedReq misses
system.cpu3.dcache.StoreCondReq_misses::cpu3.data           11                       # number of StoreCondReq misses
system.cpu3.dcache.StoreCondReq_misses::total           11                       # number of StoreCondReq misses
system.cpu3.dcache.demand_misses::cpu3.data       245033                       # number of demand (read+write) misses
system.cpu3.dcache.demand_misses::total        245033                       # number of demand (read+write) misses
system.cpu3.dcache.overall_misses::cpu3.data       245033                       # number of overall misses
system.cpu3.dcache.overall_misses::total       245033                       # number of overall misses
system.cpu3.dcache.ReadReq_miss_latency::cpu3.data  11577528000                       # number of ReadReq miss cycles
system.cpu3.dcache.ReadReq_miss_latency::total  11577528000                       # number of ReadReq miss cycles
system.cpu3.dcache.WriteReq_miss_latency::cpu3.data   1521234295                       # number of WriteReq miss cycles
system.cpu3.dcache.WriteReq_miss_latency::total   1521234295                       # number of WriteReq miss cycles
system.cpu3.dcache.LoadLockedReq_miss_latency::cpu3.data       193000                       # number of LoadLockedReq miss cycles
system.cpu3.dcache.LoadLockedReq_miss_latency::total       193000                       # number of LoadLockedReq miss cycles
system.cpu3.dcache.StoreCondReq_miss_latency::cpu3.data       179000                       # number of StoreCondReq miss cycles
system.cpu3.dcache.StoreCondReq_miss_latency::total       179000                       # number of StoreCondReq miss cycles
system.cpu3.dcache.demand_miss_latency::cpu3.data  13098762295                       # number of demand (read+write) miss cycles
system.cpu3.dcache.demand_miss_latency::total  13098762295                       # number of demand (read+write) miss cycles
system.cpu3.dcache.overall_miss_latency::cpu3.data  13098762295                       # number of overall miss cycles
system.cpu3.dcache.overall_miss_latency::total  13098762295                       # number of overall miss cycles
system.cpu3.dcache.ReadReq_accesses::cpu3.data      1143548                       # number of ReadReq accesses(hits+misses)
system.cpu3.dcache.ReadReq_accesses::total      1143548                       # number of ReadReq accesses(hits+misses)
system.cpu3.dcache.WriteReq_accesses::cpu3.data       750906                       # number of WriteReq accesses(hits+misses)
system.cpu3.dcache.WriteReq_accesses::total       750906                       # number of WriteReq accesses(hits+misses)
system.cpu3.dcache.LoadLockedReq_accesses::cpu3.data           31                       # number of LoadLockedReq accesses(hits+misses)
system.cpu3.dcache.LoadLockedReq_accesses::total           31                       # number of LoadLockedReq accesses(hits+misses)
system.cpu3.dcache.StoreCondReq_accesses::cpu3.data           27                       # number of StoreCondReq accesses(hits+misses)
system.cpu3.dcache.StoreCondReq_accesses::total           27                       # number of StoreCondReq accesses(hits+misses)
system.cpu3.dcache.demand_accesses::cpu3.data      1894454                       # number of demand (read+write) accesses
system.cpu3.dcache.demand_accesses::total      1894454                       # number of demand (read+write) accesses
system.cpu3.dcache.overall_accesses::cpu3.data      1894454                       # number of overall (read+write) accesses
system.cpu3.dcache.overall_accesses::total      1894454                       # number of overall (read+write) accesses
system.cpu3.dcache.ReadReq_miss_rate::cpu3.data     0.192188                       # miss rate for ReadReq accesses
system.cpu3.dcache.ReadReq_miss_rate::total     0.192188                       # miss rate for ReadReq accesses
system.cpu3.dcache.WriteReq_miss_rate::cpu3.data     0.033635                       # miss rate for WriteReq accesses
system.cpu3.dcache.WriteReq_miss_rate::total     0.033635                       # miss rate for WriteReq accesses
system.cpu3.dcache.LoadLockedReq_miss_rate::cpu3.data     0.258065                       # miss rate for LoadLockedReq accesses
system.cpu3.dcache.LoadLockedReq_miss_rate::total     0.258065                       # miss rate for LoadLockedReq accesses
system.cpu3.dcache.StoreCondReq_miss_rate::cpu3.data     0.407407                       # miss rate for StoreCondReq accesses
system.cpu3.dcache.StoreCondReq_miss_rate::total     0.407407                       # miss rate for StoreCondReq accesses
system.cpu3.dcache.demand_miss_rate::cpu3.data     0.129342                       # miss rate for demand accesses
system.cpu3.dcache.demand_miss_rate::total     0.129342                       # miss rate for demand accesses
system.cpu3.dcache.overall_miss_rate::cpu3.data     0.129342                       # miss rate for overall accesses
system.cpu3.dcache.overall_miss_rate::total     0.129342                       # miss rate for overall accesses
system.cpu3.dcache.ReadReq_avg_miss_latency::cpu3.data 52678.763832                       # average ReadReq miss latency
system.cpu3.dcache.ReadReq_avg_miss_latency::total 52678.763832                       # average ReadReq miss latency
system.cpu3.dcache.WriteReq_avg_miss_latency::cpu3.data 60230.205290                       # average WriteReq miss latency
system.cpu3.dcache.WriteReq_avg_miss_latency::total 60230.205290                       # average WriteReq miss latency
system.cpu3.dcache.LoadLockedReq_avg_miss_latency::cpu3.data        24125                       # average LoadLockedReq miss latency
system.cpu3.dcache.LoadLockedReq_avg_miss_latency::total        24125                       # average LoadLockedReq miss latency
system.cpu3.dcache.StoreCondReq_avg_miss_latency::cpu3.data 16272.727273                       # average StoreCondReq miss latency
system.cpu3.dcache.StoreCondReq_avg_miss_latency::total 16272.727273                       # average StoreCondReq miss latency
system.cpu3.dcache.demand_avg_miss_latency::cpu3.data 53457.135549                       # average overall miss latency
system.cpu3.dcache.demand_avg_miss_latency::total 53457.135549                       # average overall miss latency
system.cpu3.dcache.overall_avg_miss_latency::cpu3.data 53457.135549                       # average overall miss latency
system.cpu3.dcache.overall_avg_miss_latency::total 53457.135549                       # average overall miss latency
system.cpu3.dcache.blocked_cycles::no_mshrs       945998                       # number of cycles access was blocked
system.cpu3.dcache.blocked_cycles::no_targets    954783994                       # number of cycles access was blocked
system.cpu3.dcache.blocked::no_mshrs               58                       # number of cycles access was blocked
system.cpu3.dcache.blocked::no_targets          20445                       # number of cycles access was blocked
system.cpu3.dcache.avg_blocked_cycles::no_mshrs 16310.310345                       # average number of cycles each access was blocked
system.cpu3.dcache.avg_blocked_cycles::no_targets 46700.121986                       # average number of cycles each access was blocked
system.cpu3.dcache.fast_writes                      0                       # number of fast writes performed
system.cpu3.dcache.cache_copies                     0                       # number of cache copies performed
system.cpu3.dcache.writebacks::writebacks        20449                       # number of writebacks
system.cpu3.dcache.writebacks::total            20449                       # number of writebacks
system.cpu3.dcache.ReadReq_mshr_hits::cpu3.data       180720                       # number of ReadReq MSHR hits
system.cpu3.dcache.ReadReq_mshr_hits::total       180720                       # number of ReadReq MSHR hits
system.cpu3.dcache.WriteReq_mshr_hits::cpu3.data        12831                       # number of WriteReq MSHR hits
system.cpu3.dcache.WriteReq_mshr_hits::total        12831                       # number of WriteReq MSHR hits
system.cpu3.dcache.LoadLockedReq_mshr_hits::cpu3.data            3                       # number of LoadLockedReq MSHR hits
system.cpu3.dcache.LoadLockedReq_mshr_hits::total            3                       # number of LoadLockedReq MSHR hits
system.cpu3.dcache.demand_mshr_hits::cpu3.data       193551                       # number of demand (read+write) MSHR hits
system.cpu3.dcache.demand_mshr_hits::total       193551                       # number of demand (read+write) MSHR hits
system.cpu3.dcache.overall_mshr_hits::cpu3.data       193551                       # number of overall MSHR hits
system.cpu3.dcache.overall_mshr_hits::total       193551                       # number of overall MSHR hits
system.cpu3.dcache.ReadReq_mshr_misses::cpu3.data        39056                       # number of ReadReq MSHR misses
system.cpu3.dcache.ReadReq_mshr_misses::total        39056                       # number of ReadReq MSHR misses
system.cpu3.dcache.WriteReq_mshr_misses::cpu3.data        12426                       # number of WriteReq MSHR misses
system.cpu3.dcache.WriteReq_mshr_misses::total        12426                       # number of WriteReq MSHR misses
system.cpu3.dcache.LoadLockedReq_mshr_misses::cpu3.data            5                       # number of LoadLockedReq MSHR misses
system.cpu3.dcache.LoadLockedReq_mshr_misses::total            5                       # number of LoadLockedReq MSHR misses
system.cpu3.dcache.StoreCondReq_mshr_misses::cpu3.data           11                       # number of StoreCondReq MSHR misses
system.cpu3.dcache.StoreCondReq_mshr_misses::total           11                       # number of StoreCondReq MSHR misses
system.cpu3.dcache.demand_mshr_misses::cpu3.data        51482                       # number of demand (read+write) MSHR misses
system.cpu3.dcache.demand_mshr_misses::total        51482                       # number of demand (read+write) MSHR misses
system.cpu3.dcache.overall_mshr_misses::cpu3.data        51482                       # number of overall MSHR misses
system.cpu3.dcache.overall_mshr_misses::total        51482                       # number of overall MSHR misses
system.cpu3.dcache.ReadReq_mshr_miss_latency::cpu3.data   2074071000                       # number of ReadReq MSHR miss cycles
system.cpu3.dcache.ReadReq_mshr_miss_latency::total   2074071000                       # number of ReadReq MSHR miss cycles
system.cpu3.dcache.WriteReq_mshr_miss_latency::cpu3.data    783466646                       # number of WriteReq MSHR miss cycles
system.cpu3.dcache.WriteReq_mshr_miss_latency::total    783466646                       # number of WriteReq MSHR miss cycles
system.cpu3.dcache.LoadLockedReq_mshr_miss_latency::cpu3.data        13000                       # number of LoadLockedReq MSHR miss cycles
system.cpu3.dcache.LoadLockedReq_mshr_miss_latency::total        13000                       # number of LoadLockedReq MSHR miss cycles
system.cpu3.dcache.StoreCondReq_mshr_miss_latency::cpu3.data       146000                       # number of StoreCondReq MSHR miss cycles
system.cpu3.dcache.StoreCondReq_mshr_miss_latency::total       146000                       # number of StoreCondReq MSHR miss cycles
system.cpu3.dcache.demand_mshr_miss_latency::cpu3.data   2857537646                       # number of demand (read+write) MSHR miss cycles
system.cpu3.dcache.demand_mshr_miss_latency::total   2857537646                       # number of demand (read+write) MSHR miss cycles
system.cpu3.dcache.overall_mshr_miss_latency::cpu3.data   2857537646                       # number of overall MSHR miss cycles
system.cpu3.dcache.overall_mshr_miss_latency::total   2857537646                       # number of overall MSHR miss cycles
system.cpu3.dcache.ReadReq_mshr_miss_rate::cpu3.data     0.034153                       # mshr miss rate for ReadReq accesses
system.cpu3.dcache.ReadReq_mshr_miss_rate::total     0.034153                       # mshr miss rate for ReadReq accesses
system.cpu3.dcache.WriteReq_mshr_miss_rate::cpu3.data     0.016548                       # mshr miss rate for WriteReq accesses
system.cpu3.dcache.WriteReq_mshr_miss_rate::total     0.016548                       # mshr miss rate for WriteReq accesses
system.cpu3.dcache.LoadLockedReq_mshr_miss_rate::cpu3.data     0.161290                       # mshr miss rate for LoadLockedReq accesses
system.cpu3.dcache.LoadLockedReq_mshr_miss_rate::total     0.161290                       # mshr miss rate for LoadLockedReq accesses
system.cpu3.dcache.StoreCondReq_mshr_miss_rate::cpu3.data     0.407407                       # mshr miss rate for StoreCondReq accesses
system.cpu3.dcache.StoreCondReq_mshr_miss_rate::total     0.407407                       # mshr miss rate for StoreCondReq accesses
system.cpu3.dcache.demand_mshr_miss_rate::cpu3.data     0.027175                       # mshr miss rate for demand accesses
system.cpu3.dcache.demand_mshr_miss_rate::total     0.027175                       # mshr miss rate for demand accesses
system.cpu3.dcache.overall_mshr_miss_rate::cpu3.data     0.027175                       # mshr miss rate for overall accesses
system.cpu3.dcache.overall_mshr_miss_rate::total     0.027175                       # mshr miss rate for overall accesses
system.cpu3.dcache.ReadReq_avg_mshr_miss_latency::cpu3.data 53105.054281                       # average ReadReq mshr miss latency
system.cpu3.dcache.ReadReq_avg_mshr_miss_latency::total 53105.054281                       # average ReadReq mshr miss latency
system.cpu3.dcache.WriteReq_avg_mshr_miss_latency::cpu3.data 63050.591180                       # average WriteReq mshr miss latency
system.cpu3.dcache.WriteReq_avg_mshr_miss_latency::total 63050.591180                       # average WriteReq mshr miss latency
system.cpu3.dcache.LoadLockedReq_avg_mshr_miss_latency::cpu3.data         2600                       # average LoadLockedReq mshr miss latency
system.cpu3.dcache.LoadLockedReq_avg_mshr_miss_latency::total         2600                       # average LoadLockedReq mshr miss latency
system.cpu3.dcache.StoreCondReq_avg_mshr_miss_latency::cpu3.data 13272.727273                       # average StoreCondReq mshr miss latency
system.cpu3.dcache.StoreCondReq_avg_mshr_miss_latency::total 13272.727273                       # average StoreCondReq mshr miss latency
system.cpu3.dcache.demand_avg_mshr_miss_latency::cpu3.data 55505.567888                       # average overall mshr miss latency
system.cpu3.dcache.demand_avg_mshr_miss_latency::total 55505.567888                       # average overall mshr miss latency
system.cpu3.dcache.overall_avg_mshr_miss_latency::cpu3.data 55505.567888                       # average overall mshr miss latency
system.cpu3.dcache.overall_avg_mshr_miss_latency::total 55505.567888                       # average overall mshr miss latency
system.cpu3.dcache.no_allocate_misses               0                       # Number of misses that were no-allocate

---------- End Simulation Statistics   ----------
