
---------- Begin Simulation Statistics ----------
sim_seconds                                  0.145317                       # Number of seconds simulated
sim_ticks                                145317372000                       # Number of ticks simulated
final_tick                               145317372000                       # Number of ticks from beginning of simulation (restored from checkpoints and never reset)
sim_freq                                 1000000000000                       # Frequency of simulated ticks
host_inst_rate                                 148299                       # Simulator instruction rate (inst/s)
host_op_rate                                   227146                       # Simulator op (including micro ops) rate (op/s)
host_tick_rate                              245599840                       # Simulator tick rate (ticks/s)
host_mem_usage                                 331460                       # Number of bytes of host memory used
host_seconds                                   591.68                       # Real time elapsed on the host
sim_insts                                    87745907                       # Number of instructions simulated
sim_ops                                     134398346                       # Number of ops (including micro ops) simulated
system.ruby.l1_cntrl0.L1Dcache.demand_hits      2345653                       # Number of cache demand hits
system.ruby.l1_cntrl0.L1Dcache.demand_misses       233583                       # Number of cache demand misses
system.ruby.l1_cntrl0.L1Dcache.demand_accesses      2579236                       # Number of cache demand accesses
system.ruby.l1_cntrl0.L1Icache.demand_hits     30878858                       # Number of cache demand hits
system.ruby.l1_cntrl0.L1Icache.demand_misses          922                       # Number of cache demand misses
system.ruby.l1_cntrl0.L1Icache.demand_accesses     30879780                       # Number of cache demand accesses
system.ruby.l1_cntrl0.prefetcher.miss_observed            0                       # number of misses observed
system.ruby.l1_cntrl0.prefetcher.allocated_streams            0                       # number of streams allocated for prefetching
system.ruby.l1_cntrl0.prefetcher.prefetches_requested            0                       # number of prefetch requests made
system.ruby.l1_cntrl0.prefetcher.prefetches_accepted            0                       # number of prefetch requests accepted
system.ruby.l1_cntrl0.prefetcher.dropped_prefetches            0                       # number of prefetch requests dropped
system.ruby.l1_cntrl0.prefetcher.hits               0                       # number of prefetched blocks accessed
system.ruby.l1_cntrl0.prefetcher.partial_hits            0                       # number of misses observed for a block being prefetched
system.ruby.l1_cntrl0.prefetcher.pages_crossed            0                       # number of prefetches across pages
system.ruby.l1_cntrl0.prefetcher.misses_on_prefetched_blocks            0                       # number of misses for blocks that were prefetched, yet missed
system.ruby.l1_cntrl1.L1Dcache.demand_hits      2389852                       # Number of cache demand hits
system.ruby.l1_cntrl1.L1Dcache.demand_misses       232171                       # Number of cache demand misses
system.ruby.l1_cntrl1.L1Dcache.demand_accesses      2622023                       # Number of cache demand accesses
system.ruby.l1_cntrl1.L1Icache.demand_hits     30941651                       # Number of cache demand hits
system.ruby.l1_cntrl1.L1Icache.demand_misses          315                       # Number of cache demand misses
system.ruby.l1_cntrl1.L1Icache.demand_accesses     30941966                       # Number of cache demand accesses
system.ruby.l1_cntrl1.prefetcher.miss_observed            0                       # number of misses observed
system.ruby.l1_cntrl1.prefetcher.allocated_streams            0                       # number of streams allocated for prefetching
system.ruby.l1_cntrl1.prefetcher.prefetches_requested            0                       # number of prefetch requests made
system.ruby.l1_cntrl1.prefetcher.prefetches_accepted            0                       # number of prefetch requests accepted
system.ruby.l1_cntrl1.prefetcher.dropped_prefetches            0                       # number of prefetch requests dropped
system.ruby.l1_cntrl1.prefetcher.hits               0                       # number of prefetched blocks accessed
system.ruby.l1_cntrl1.prefetcher.partial_hits            0                       # number of misses observed for a block being prefetched
system.ruby.l1_cntrl1.prefetcher.pages_crossed            0                       # number of prefetches across pages
system.ruby.l1_cntrl1.prefetcher.misses_on_prefetched_blocks            0                       # number of misses for blocks that were prefetched, yet missed
system.ruby.l1_cntrl2.L1Dcache.demand_hits      2388899                       # Number of cache demand hits
system.ruby.l1_cntrl2.L1Dcache.demand_misses       233087                       # Number of cache demand misses
system.ruby.l1_cntrl2.L1Dcache.demand_accesses      2621986                       # Number of cache demand accesses
system.ruby.l1_cntrl2.L1Icache.demand_hits     30945957                       # Number of cache demand hits
system.ruby.l1_cntrl2.L1Icache.demand_misses          290                       # Number of cache demand misses
system.ruby.l1_cntrl2.L1Icache.demand_accesses     30946247                       # Number of cache demand accesses
system.ruby.l1_cntrl2.prefetcher.miss_observed            0                       # number of misses observed
system.ruby.l1_cntrl2.prefetcher.allocated_streams            0                       # number of streams allocated for prefetching
system.ruby.l1_cntrl2.prefetcher.prefetches_requested            0                       # number of prefetch requests made
system.ruby.l1_cntrl2.prefetcher.prefetches_accepted            0                       # number of prefetch requests accepted
system.ruby.l1_cntrl2.prefetcher.dropped_prefetches            0                       # number of prefetch requests dropped
system.ruby.l1_cntrl2.prefetcher.hits               0                       # number of prefetched blocks accessed
system.ruby.l1_cntrl2.prefetcher.partial_hits            0                       # number of misses observed for a block being prefetched
system.ruby.l1_cntrl2.prefetcher.pages_crossed            0                       # number of prefetches across pages
system.ruby.l1_cntrl2.prefetcher.misses_on_prefetched_blocks            0                       # number of misses for blocks that were prefetched, yet missed
system.ruby.l1_cntrl3.L1Dcache.demand_hits      2331530                       # Number of cache demand hits
system.ruby.l1_cntrl3.L1Dcache.demand_misses       234351                       # Number of cache demand misses
system.ruby.l1_cntrl3.L1Dcache.demand_accesses      2565881                       # Number of cache demand accesses
system.ruby.l1_cntrl3.L1Icache.demand_hits     30842874                       # Number of cache demand hits
system.ruby.l1_cntrl3.L1Icache.demand_misses          302                       # Number of cache demand misses
system.ruby.l1_cntrl3.L1Icache.demand_accesses     30843176                       # Number of cache demand accesses
system.ruby.l1_cntrl3.prefetcher.miss_observed            0                       # number of misses observed
system.ruby.l1_cntrl3.prefetcher.allocated_streams            0                       # number of streams allocated for prefetching
system.ruby.l1_cntrl3.prefetcher.prefetches_requested            0                       # number of prefetch requests made
system.ruby.l1_cntrl3.prefetcher.prefetches_accepted            0                       # number of prefetch requests accepted
system.ruby.l1_cntrl3.prefetcher.dropped_prefetches            0                       # number of prefetch requests dropped
system.ruby.l1_cntrl3.prefetcher.hits               0                       # number of prefetched blocks accessed
system.ruby.l1_cntrl3.prefetcher.partial_hits            0                       # number of misses observed for a block being prefetched
system.ruby.l1_cntrl3.prefetcher.pages_crossed            0                       # number of prefetches across pages
system.ruby.l1_cntrl3.prefetcher.misses_on_prefetched_blocks            0                       # number of misses for blocks that were prefetched, yet missed
system.ruby.l2_cntrl1.L2cache.demand_hits       112640                       # Number of cache demand hits
system.ruby.l2_cntrl1.L2cache.demand_misses       121029                       # Number of cache demand misses
system.ruby.l2_cntrl1.L2cache.demand_accesses       233669                       # Number of cache demand accesses
system.ruby.l2_cntrl0.L2cache.demand_hits       112282                       # Number of cache demand hits
system.ruby.l2_cntrl0.L2cache.demand_misses       122485                       # Number of cache demand misses
system.ruby.l2_cntrl0.L2cache.demand_accesses       234767                       # Number of cache demand accesses
system.ruby.l2_cntrl3.L2cache.demand_hits       112470                       # Number of cache demand hits
system.ruby.l2_cntrl3.L2cache.demand_misses       121040                       # Number of cache demand misses
system.ruby.l2_cntrl3.L2cache.demand_accesses       233510                       # Number of cache demand accesses
system.ruby.l2_cntrl2.L2cache.demand_hits       112197                       # Number of cache demand hits
system.ruby.l2_cntrl2.L2cache.demand_misses       120878                       # Number of cache demand misses
system.ruby.l2_cntrl2.L2cache.demand_accesses       233075                       # Number of cache demand accesses
system.ruby.dir_cntrl0.memBuffer.memReq        173115                       # Total number of memory requests
system.ruby.dir_cntrl0.memBuffer.memRead       120378                       # Number of memory reads
system.ruby.dir_cntrl0.memBuffer.memWrite        52737                       # Number of memory writes
system.ruby.dir_cntrl0.memBuffer.memRefresh       595121                       # Number of memory refreshes
system.ruby.dir_cntrl0.memBuffer.memWaitCycles       528026                       # Delay stalled at the head of the bank queue
system.ruby.dir_cntrl0.memBuffer.memInputQ         1415                       # Delay in the input queue
system.ruby.dir_cntrl0.memBuffer.memBankQ         7070                       # Delay behind the head of the bank queue
system.ruby.dir_cntrl0.memBuffer.totalStalls       536511                       # Total number of stall cycles
system.ruby.dir_cntrl0.memBuffer.stallsPerReq     3.099160                       # Expected number of stall cycles per request
system.ruby.dir_cntrl0.memBuffer.memBankBusy       518345                       # memory stalls due to busy bank
system.ruby.dir_cntrl0.memBuffer.memBusBusy         6113                       # memory stalls due to busy bus
system.ruby.dir_cntrl0.memBuffer.memReadWriteBusy          889                       # memory stalls due to read write turnaround
system.ruby.dir_cntrl0.memBuffer.memDataBusBusy          736                       # memory stalls due to read read turnaround
system.ruby.dir_cntrl0.memBuffer.memArbWait         1943                       # memory stalls due to arbitration
system.ruby.dir_cntrl0.memBuffer.memBankCount |        5372      3.10%      3.10% |        5422      3.13%      6.24% |        5398      3.12%      9.35% |        5386      3.11%     12.46% |        5414      3.13%     15.59% |        5433      3.14%     18.73% |        5494      3.17%     21.90% |        5412      3.13%     25.03% |        5466      3.16%     28.19% |        5419      3.13%     31.32% |        5432      3.14%     34.46% |        5414      3.13%     37.58% |        5440      3.14%     40.73% |        5384      3.11%     43.84% |        5410      3.13%     46.96% |        5396      3.12%     50.08% |        5387      3.11%     53.19% |        5375      3.10%     56.29% |        5401      3.12%     59.41% |        5385      3.11%     62.52% |        5440      3.14%     65.67% |        5439      3.14%     68.81% |        5405      3.12%     71.93% |        5410      3.13%     75.06% |        5416      3.13%     78.19% |        5404      3.12%     81.31% |        5418      3.13%     84.44% |        5390      3.11%     87.55% |        5428      3.14%     90.69% |        5355      3.09%     93.78% |        5401      3.12%     96.90% |        5369      3.10%    100.00% # Number of accesses per bank
system.ruby.dir_cntrl0.memBuffer.memBankCount::total       173115                       # Number of accesses per bank

system.ruby.dir_cntrl1.memBuffer.memReq        173195                       # Total number of memory requests
system.ruby.dir_cntrl1.memBuffer.memRead       120403                       # Number of memory reads
system.ruby.dir_cntrl1.memBuffer.memWrite        52792                       # Number of memory writes
system.ruby.dir_cntrl1.memBuffer.memRefresh       595271                       # Number of memory refreshes
system.ruby.dir_cntrl1.memBuffer.memWaitCycles       528114                       # Delay stalled at the head of the bank queue
system.ruby.dir_cntrl1.memBuffer.memInputQ         1369                       # Delay in the input queue
system.ruby.dir_cntrl1.memBuffer.memBankQ         6647                       # Delay behind the head of the bank queue
system.ruby.dir_cntrl1.memBuffer.totalStalls       536130                       # Total number of stall cycles
system.ruby.dir_cntrl1.memBuffer.stallsPerReq     3.095528                       # Expected number of stall cycles per request
system.ruby.dir_cntrl1.memBuffer.memBankBusy       517394                       # memory stalls due to busy bank
system.ruby.dir_cntrl1.memBuffer.memBusBusy         6652                       # memory stalls due to busy bus
system.ruby.dir_cntrl1.memBuffer.memReadWriteBusy          988                       # memory stalls due to read write turnaround
system.ruby.dir_cntrl1.memBuffer.memDataBusBusy         1068                       # memory stalls due to read read turnaround
system.ruby.dir_cntrl1.memBuffer.memArbWait         2012                       # memory stalls due to arbitration
system.ruby.dir_cntrl1.memBuffer.memBankCount |        5363      3.10%      3.10% |        5370      3.10%      6.20% |        5418      3.13%      9.33% |        5394      3.11%     12.44% |        5444      3.14%     15.58% |        5452      3.15%     18.73% |        5484      3.17%     21.90% |        5470      3.16%     25.06% |        5443      3.14%     28.20% |        5417      3.13%     31.33% |        5443      3.14%     34.47% |        5427      3.13%     37.60% |        5427      3.13%     40.74% |        5372      3.10%     43.84% |        5395      3.11%     46.95% |        5438      3.14%     50.09% |        5431      3.14%     53.23% |        5402      3.12%     56.35% |        5416      3.13%     59.47% |        5423      3.13%     62.61% |        5431      3.14%     65.74% |        5401      3.12%     68.86% |        5412      3.12%     71.98% |        5364      3.10%     75.08% |        5440      3.14%     78.22% |        5405      3.12%     81.34% |        5405      3.12%     84.46% |        5401      3.12%     87.58% |        5351      3.09%     90.67% |        5381      3.11%     93.78% |        5398      3.12%     96.90% |        5377      3.10%    100.00% # Number of accesses per bank
system.ruby.dir_cntrl1.memBuffer.memBankCount::total       173195                       # Number of accesses per bank

system.ruby.dir_cntrl2.memBuffer.memReq        173050                       # Total number of memory requests
system.ruby.dir_cntrl2.memBuffer.memRead       120336                       # Number of memory reads
system.ruby.dir_cntrl2.memBuffer.memWrite        52714                       # Number of memory writes
system.ruby.dir_cntrl2.memBuffer.memRefresh       595266                       # Number of memory refreshes
system.ruby.dir_cntrl2.memBuffer.memWaitCycles       527025                       # Delay stalled at the head of the bank queue
system.ruby.dir_cntrl2.memBuffer.memInputQ         1283                       # Delay in the input queue
system.ruby.dir_cntrl2.memBuffer.memBankQ         6981                       # Delay behind the head of the bank queue
system.ruby.dir_cntrl2.memBuffer.totalStalls       535289                       # Total number of stall cycles
system.ruby.dir_cntrl2.memBuffer.stallsPerReq     3.093262                       # Expected number of stall cycles per request
system.ruby.dir_cntrl2.memBuffer.memBankBusy       516131                       # memory stalls due to busy bank
system.ruby.dir_cntrl2.memBuffer.memBusBusy         6672                       # memory stalls due to busy bus
system.ruby.dir_cntrl2.memBuffer.memReadWriteBusy          954                       # memory stalls due to read write turnaround
system.ruby.dir_cntrl2.memBuffer.memDataBusBusy         1083                       # memory stalls due to read read turnaround
system.ruby.dir_cntrl2.memBuffer.memArbWait         2185                       # memory stalls due to arbitration
system.ruby.dir_cntrl2.memBuffer.memBankCount |        5433      3.14%      3.14% |        5413      3.13%      6.27% |        5387      3.11%      9.38% |        5423      3.13%     12.51% |        5419      3.13%     15.65% |        5443      3.15%     18.79% |        5500      3.18%     21.97% |        5468      3.16%     25.13% |        5427      3.14%     28.27% |        5381      3.11%     31.37% |        5404      3.12%     34.50% |        5424      3.13%     37.63% |        5422      3.13%     40.77% |        5389      3.11%     43.88% |        5387      3.11%     46.99% |        5397      3.12%     50.11% |        5403      3.12%     53.23% |        5392      3.12%     56.35% |        5396      3.12%     59.47% |        5403      3.12%     62.59% |        5413      3.13%     65.72% |        5404      3.12%     68.84% |        5423      3.13%     71.97% |        5424      3.13%     75.11% |        5419      3.13%     78.24% |        5403      3.12%     81.36% |        5384      3.11%     84.47% |        5397      3.12%     87.59% |        5413      3.13%     90.72% |        5374      3.11%     93.83% |        5339      3.09%     96.91% |        5346      3.09%    100.00% # Number of accesses per bank
system.ruby.dir_cntrl2.memBuffer.memBankCount::total       173050                       # Number of accesses per bank

system.ruby.dir_cntrl3.memBuffer.memReq        173200                       # Total number of memory requests
system.ruby.dir_cntrl3.memBuffer.memRead       120422                       # Number of memory reads
system.ruby.dir_cntrl3.memBuffer.memWrite        52778                       # Number of memory writes
system.ruby.dir_cntrl3.memBuffer.memRefresh       595216                       # Number of memory refreshes
system.ruby.dir_cntrl3.memBuffer.memWaitCycles       530107                       # Delay stalled at the head of the bank queue
system.ruby.dir_cntrl3.memBuffer.memInputQ         1318                       # Delay in the input queue
system.ruby.dir_cntrl3.memBuffer.memBankQ         8368                       # Delay behind the head of the bank queue
system.ruby.dir_cntrl3.memBuffer.totalStalls       539793                       # Total number of stall cycles
system.ruby.dir_cntrl3.memBuffer.stallsPerReq     3.116588                       # Expected number of stall cycles per request
system.ruby.dir_cntrl3.memBuffer.memBankBusy       519426                       # memory stalls due to busy bank
system.ruby.dir_cntrl3.memBuffer.memBusBusy         6801                       # memory stalls due to busy bus
system.ruby.dir_cntrl3.memBuffer.memReadWriteBusy         1034                       # memory stalls due to read write turnaround
system.ruby.dir_cntrl3.memBuffer.memDataBusBusy          924                       # memory stalls due to read read turnaround
system.ruby.dir_cntrl3.memBuffer.memArbWait         1922                       # memory stalls due to arbitration
system.ruby.dir_cntrl3.memBuffer.memBankCount |        5406      3.12%      3.12% |        5390      3.11%      6.23% |        5405      3.12%      9.35% |        5456      3.15%     12.50% |        5457      3.15%     15.65% |        5438      3.14%     18.79% |        5463      3.15%     21.95% |        5492      3.17%     25.12% |        5445      3.14%     28.26% |        5448      3.15%     31.41% |        5396      3.12%     34.52% |        5396      3.12%     37.64% |        5389      3.11%     40.75% |        5404      3.12%     43.87% |        5364      3.10%     46.97% |        5403      3.12%     50.09% |        5397      3.12%     53.20% |        5414      3.13%     56.33% |        5408      3.12%     59.45% |        5406      3.12%     62.57% |        5416      3.13%     65.70% |        5396      3.12%     68.82% |        5423      3.13%     71.95% |        5406      3.12%     75.07% |        5421      3.13%     78.20% |        5401      3.12%     81.32% |        5388      3.11%     84.43% |        5419      3.13%     87.56% |        5365      3.10%     90.65% |        5401      3.12%     93.77% |        5384      3.11%     96.88% |        5403      3.12%    100.00% # Number of accesses per bank
system.ruby.dir_cntrl3.memBuffer.memBankCount::total       173200                       # Number of accesses per bank

system.cpu0.workload.num_syscalls                  71                       # Number of system calls
system.cpu0.numCycles                       290634744                       # number of cpu cycles simulated
system.cpu0.numWorkItemsStarted                     0                       # number of work items this cpu started
system.cpu0.numWorkItemsCompleted                   0                       # number of work items this cpu completed
system.cpu0.committedInsts                   21913062                       # Number of instructions committed
system.cpu0.committedOps                     33585238                       # Number of ops (including micro ops) committed
system.cpu0.num_int_alu_accesses             14312342                       # Number of integer alu accesses
system.cpu0.num_fp_alu_accesses              22704956                       # Number of float alu accesses
system.cpu0.num_func_calls                       1162                       # number of times a function call or return occured
system.cpu0.num_conditional_control_insts       681593                       # number of instructions that are conditional controls
system.cpu0.num_int_insts                    14312342                       # number of integer instructions
system.cpu0.num_fp_insts                     22704956                       # number of float instructions
system.cpu0.num_int_register_reads           29408736                       # number of times the integer registers were read
system.cpu0.num_int_register_writes          18159243                       # number of times the integer registers were written
system.cpu0.num_fp_register_reads            50880222                       # number of times the floating registers were read
system.cpu0.num_fp_register_writes           20990699                       # number of times the floating registers were written
system.cpu0.num_mem_refs                      2579236                       # number of memory refs
system.cpu0.num_load_insts                    1629863                       # Number of load instructions
system.cpu0.num_store_insts                    949373                       # Number of store instructions
system.cpu0.num_idle_cycles                         0                       # Number of idle cycles
system.cpu0.num_busy_cycles                 290634744                       # Number of busy cycles
system.cpu0.not_idle_fraction                       1                       # Percentage of non-idle cycles
system.cpu0.idle_fraction                           0                       # Percentage of idle cycles
system.cpu1.numCycles                       290269606                       # number of cpu cycles simulated
system.cpu1.numWorkItemsStarted                     0                       # number of work items this cpu started
system.cpu1.numWorkItemsCompleted                   0                       # number of work items this cpu completed
system.cpu1.committedInsts                   21974187                       # Number of instructions committed
system.cpu1.committedOps                     33636687                       # Number of ops (including micro ops) committed
system.cpu1.num_int_alu_accesses             14368969                       # Number of integer alu accesses
system.cpu1.num_fp_alu_accesses              22687847                       # Number of float alu accesses
system.cpu1.num_func_calls                        124                       # number of times a function call or return occured
system.cpu1.num_conditional_control_insts       697253                       # number of instructions that are conditional controls
system.cpu1.num_int_insts                    14368969                       # number of integer instructions
system.cpu1.num_fp_insts                     22687847                       # number of float instructions
system.cpu1.num_int_register_reads           29645083                       # number of times the integer registers were read
system.cpu1.num_int_register_writes          18193360                       # number of times the integer registers were written
system.cpu1.num_fp_register_reads            50862245                       # number of times the floating registers were read
system.cpu1.num_fp_register_writes           20977754                       # number of times the floating registers were written
system.cpu1.num_mem_refs                      2622023                       # number of memory refs
system.cpu1.num_load_insts                    1658389                       # Number of load instructions
system.cpu1.num_store_insts                    963634                       # Number of store instructions
system.cpu1.num_idle_cycles              670212.923005                       # Number of idle cycles
system.cpu1.num_busy_cycles              289599393.076995                       # Number of busy cycles
system.cpu1.not_idle_fraction                0.997691                       # Percentage of non-idle cycles
system.cpu1.idle_fraction                    0.002309                       # Percentage of idle cycles
system.cpu2.numCycles                       290267810                       # number of cpu cycles simulated
system.cpu2.numWorkItemsStarted                     0                       # number of work items this cpu started
system.cpu2.numWorkItemsCompleted                   0                       # number of work items this cpu completed
system.cpu2.committedInsts                   21975145                       # Number of instructions committed
system.cpu2.committedOps                     33644610                       # Number of ops (including micro ops) committed
system.cpu2.num_int_alu_accesses             14376240                       # Number of integer alu accesses
system.cpu2.num_fp_alu_accesses              22688581                       # Number of float alu accesses
system.cpu2.num_func_calls                         74                       # number of times a function call or return occured
system.cpu2.num_conditional_control_insts       696598                       # number of instructions that are conditional controls
system.cpu2.num_int_insts                    14376240                       # number of integer instructions
system.cpu2.num_fp_insts                     22688581                       # number of float instructions
system.cpu2.num_int_register_reads           29650948                       # number of times the integer registers were read
system.cpu2.num_int_register_writes          18212613                       # number of times the integer registers were written
system.cpu2.num_fp_register_reads            50863903                       # number of times the floating registers were read
system.cpu2.num_fp_register_writes           20978432                       # number of times the floating registers were written
system.cpu2.num_mem_refs                      2621986                       # number of memory refs
system.cpu2.num_load_insts                    1659230                       # Number of load instructions
system.cpu2.num_store_insts                    962756                       # Number of store instructions
system.cpu2.num_idle_cycles              691763.528320                       # Number of idle cycles
system.cpu2.num_busy_cycles              289576046.471680                       # Number of busy cycles
system.cpu2.not_idle_fraction                0.997617                       # Percentage of non-idle cycles
system.cpu2.idle_fraction                    0.002383                       # Percentage of idle cycles
system.cpu3.numCycles                       290267814                       # number of cpu cycles simulated
system.cpu3.numWorkItemsStarted                     0                       # number of work items this cpu started
system.cpu3.numWorkItemsCompleted                   0                       # number of work items this cpu completed
system.cpu3.committedInsts                   21883513                       # Number of instructions committed
system.cpu3.committedOps                     33531811                       # Number of ops (including micro ops) committed
system.cpu3.num_int_alu_accesses             14259304                       # Number of integer alu accesses
system.cpu3.num_fp_alu_accesses              22700910                       # Number of float alu accesses
system.cpu3.num_func_calls                        118                       # number of times a function call or return occured
system.cpu3.num_conditional_control_insts       675555                       # number of instructions that are conditional controls
system.cpu3.num_int_insts                    14259304                       # number of integer instructions
system.cpu3.num_fp_insts                     22700910                       # number of float instructions
system.cpu3.num_int_register_reads           29261201                       # number of times the integer registers were read
system.cpu3.num_int_register_writes          18109424                       # number of times the integer registers were written
system.cpu3.num_fp_register_reads            50878331                       # number of times the floating registers were read
system.cpu3.num_fp_register_writes           20988710                       # number of times the floating registers were written
system.cpu3.num_mem_refs                      2565881                       # number of memory refs
system.cpu3.num_load_insts                    1623003                       # Number of load instructions
system.cpu3.num_store_insts                    942878                       # Number of store instructions
system.cpu3.num_idle_cycles              692598.482393                       # Number of idle cycles
system.cpu3.num_busy_cycles              289575215.517607                       # Number of busy cycles
system.cpu3.not_idle_fraction                0.997614                       # Percentage of non-idle cycles
system.cpu3.idle_fraction                    0.002386                       # Percentage of idle cycles
system.ruby.l1_cntrl0.Load               |     1101172     24.71%     24.71% |     1132019     25.40%     50.11% |     1130797     25.37%     75.48% |     1092522     24.52%    100.00%
system.ruby.l1_cntrl0.Load::total             4456510                      

system.ruby.l1_cntrl0.Ifetch             |    30879780     24.98%     24.98% |    30941966     25.03%     50.01% |    30946247     25.04%     75.05% |    30843176     24.95%    100.00%
system.ruby.l1_cntrl0.Ifetch::total         123611169                      

system.ruby.l1_cntrl0.Store              |     1478064     24.91%     24.91% |     1490004     25.12%     50.03% |     1491189     25.14%     75.17% |     1473359     24.83%    100.00%
system.ruby.l1_cntrl0.Store::total            5932616                      

system.ruby.l1_cntrl0.Inv                |        3388     29.22%     29.22% |        2695     23.24%     52.46% |        2635     22.72%     75.18% |        2878     24.82%    100.00%
system.ruby.l1_cntrl0.Inv::total                11596                      

system.ruby.l1_cntrl0.L1_Replacement     |      231252     25.04%     25.04% |      229724     24.88%     49.92% |      230428     24.95%     74.87% |      232109     25.13%    100.00%
system.ruby.l1_cntrl0.L1_Replacement::total       923513                      

system.ruby.l1_cntrl0.Fwd_GETX           |         521     30.96%     30.96% |         258     15.33%     46.29% |         522     31.02%     77.30% |         382     22.70%    100.00%
system.ruby.l1_cntrl0.Fwd_GETX::total            1683                      

system.ruby.l1_cntrl0.Fwd_GETS           |         498     25.62%     25.62% |         558     28.70%     54.32% |         570     29.32%     83.64% |         318     16.36%    100.00%
system.ruby.l1_cntrl0.Fwd_GETS::total            1944                      

system.ruby.l1_cntrl0.Data               |         124     32.38%     32.38% |         126     32.90%     65.27% |         130     33.94%     99.22% |           3      0.78%    100.00%
system.ruby.l1_cntrl0.Data::total                 383                      

system.ruby.l1_cntrl0.Data_Exclusive     |       76973     25.02%     25.02% |       76549     24.89%     49.91% |       76867     24.99%     74.90% |       77221     25.10%    100.00%
system.ruby.l1_cntrl0.Data_Exclusive::total       307610                      

system.ruby.l1_cntrl0.DataS_fromL1       |         673     34.62%     34.62% |         358     18.42%     53.03% |         230     11.83%     64.87% |         683     35.13%    100.00%
system.ruby.l1_cntrl0.DataS_fromL1::total         1944                      

system.ruby.l1_cntrl0.Data_all_Acks      |      156668     25.08%     25.08% |      155291     24.86%     49.94% |      155986     24.97%     74.92% |      156688     25.08%    100.00%
system.ruby.l1_cntrl0.Data_all_Acks::total       624633                      

system.ruby.l1_cntrl0.Ack                |         116     19.40%     19.40% |         177     29.60%     49.00% |         179     29.93%     78.93% |         126     21.07%    100.00%
system.ruby.l1_cntrl0.Ack::total                  598                      

system.ruby.l1_cntrl0.Ack_all            |         191     22.90%     22.90% |         288     34.53%     57.43% |         294     35.25%     92.69% |          61      7.31%    100.00%
system.ruby.l1_cntrl0.Ack_all::total              834                      

system.ruby.l1_cntrl0.WB_Ack             |      229420     24.99%     24.99% |      228715     24.91%     49.90% |      229403     24.98%     74.88% |      230653     25.12%    100.00%
system.ruby.l1_cntrl0.WB_Ack::total            918191                      

system.ruby.l1_cntrl0.NP.Load            |       77275     25.14%     25.14% |       76114     24.76%     49.90% |       76550     24.90%     74.80% |       77451     25.20%    100.00%
system.ruby.l1_cntrl0.NP.Load::total           307390                      

system.ruby.l1_cntrl0.NP.Ifetch          |         690     59.90%     59.90% |         158     13.72%     73.61% |         149     12.93%     86.55% |         155     13.45%    100.00%
system.ruby.l1_cntrl0.NP.Ifetch::total           1152                      

system.ruby.l1_cntrl0.NP.Store           |      154285     24.97%     24.97% |      154122     24.94%     49.91% |      154390     24.98%     74.89% |      155170     25.11%    100.00%
system.ruby.l1_cntrl0.NP.Store::total          617967                      

system.ruby.l1_cntrl0.NP.Inv             |        1112     36.47%     36.47% |         552     18.10%     54.58% |         567     18.60%     73.17% |         818     26.83%    100.00%
system.ruby.l1_cntrl0.NP.Inv::total              3049                      

system.ruby.l1_cntrl0.I.Load             |         716     24.05%     24.05% |         846     28.42%     52.47% |         734     24.66%     77.12% |         681     22.88%    100.00%
system.ruby.l1_cntrl0.I.Load::total              2977                      

system.ruby.l1_cntrl0.I.Ifetch           |         232     34.27%     34.27% |         157     23.19%     57.46% |         141     20.83%     78.29% |         147     21.71%    100.00%
system.ruby.l1_cntrl0.I.Ifetch::total             677                      

system.ruby.l1_cntrl0.I.Store            |        1240     28.14%     28.14% |         927     21.04%     49.18% |        1248     28.33%     77.51% |         991     22.49%    100.00%
system.ruby.l1_cntrl0.I.Store::total             4406                      

system.ruby.l1_cntrl0.I.L1_Replacement   |         419     27.07%     27.07% |         327     21.12%     48.19% |         322     20.80%     68.99% |         480     31.01%    100.00%
system.ruby.l1_cntrl0.I.L1_Replacement::total         1548                      

system.ruby.l1_cntrl0.S.Load             |      156221     24.09%     24.09% |      168815     26.04%     50.13% |      170924     26.36%     76.49% |      152418     23.51%    100.00%
system.ruby.l1_cntrl0.S.Load::total            648378                      

system.ruby.l1_cntrl0.S.Ifetch           |    30878858     24.98%     24.98% |    30941651     25.03%     50.01% |    30945957     25.04%     75.05% |    30842874     24.95%    100.00%
system.ruby.l1_cntrl0.S.Ifetch::total       123609340                      

system.ruby.l1_cntrl0.S.Store            |          67     14.82%     14.82% |         162     35.84%     50.66% |         165     36.50%     87.17% |          58     12.83%    100.00%
system.ruby.l1_cntrl0.S.Store::total              452                      

system.ruby.l1_cntrl0.S.Inv              |         655     33.68%     33.68% |         414     21.29%     54.96% |         395     20.31%     75.27% |         481     24.73%    100.00%
system.ruby.l1_cntrl0.S.Inv::total               1945                      

system.ruby.l1_cntrl0.S.L1_Replacement   |        1413     37.44%     37.44% |         682     18.07%     55.51% |         703     18.63%     74.14% |         976     25.86%    100.00%
system.ruby.l1_cntrl0.S.L1_Replacement::total         3774                      

system.ruby.l1_cntrl0.E.Load             |      566762     24.75%     24.75% |      573341     25.04%     49.78% |      574148     25.07%     74.86% |      575803     25.14%    100.00%
system.ruby.l1_cntrl0.E.Load::total           2290054                      

system.ruby.l1_cntrl0.E.Store            |       10942     24.96%     24.96% |       10857     24.77%     49.72% |       10972     25.03%     74.75% |       11069     25.25%    100.00%
system.ruby.l1_cntrl0.E.Store::total            43840                      

system.ruby.l1_cntrl0.E.Inv              |          38     11.45%     11.45% |         129     38.86%     50.30% |         111     33.43%     83.73% |          54     16.27%    100.00%
system.ruby.l1_cntrl0.E.Inv::total                332                      

system.ruby.l1_cntrl0.E.L1_Replacement   |       65833     25.08%     25.08% |       65430     24.93%     50.00% |       65396     24.91%     74.92% |       65841     25.08%    100.00%
system.ruby.l1_cntrl0.E.L1_Replacement::total       262500                      

system.ruby.l1_cntrl0.E.Fwd_GETX         |           1      0.79%      0.79% |           2      1.57%      2.36% |           2      1.57%      3.94% |         122     96.06%    100.00%
system.ruby.l1_cntrl0.E.Fwd_GETX::total           127                      

system.ruby.l1_cntrl0.E.Fwd_GETS         |           9      3.31%      3.31% |           4      1.47%      4.78% |         258     94.85%     99.63% |           1      0.37%    100.00%
system.ruby.l1_cntrl0.E.Fwd_GETS::total           272                      

system.ruby.l1_cntrl0.M.Load             |      300198     24.86%     24.86% |      312903     25.91%     50.77% |      308441     25.54%     76.30% |      286169     23.70%    100.00%
system.ruby.l1_cntrl0.M.Load::total           1207711                      

system.ruby.l1_cntrl0.M.Store            |     1311530     24.91%     24.91% |     1323936     25.14%     50.05% |     1324414     25.15%     75.20% |     1306071     24.80%    100.00%
system.ruby.l1_cntrl0.M.Store::total          5265951                      

system.ruby.l1_cntrl0.M.Inv              |        1583     25.26%     25.26% |        1600     25.53%     50.78% |        1561     24.90%     75.69% |        1524     24.31%    100.00%
system.ruby.l1_cntrl0.M.Inv::total               6268                      

system.ruby.l1_cntrl0.M.L1_Replacement   |      163587     24.95%     24.95% |      163285     24.90%     49.85% |      164007     25.01%     74.86% |      164812     25.14%    100.00%
system.ruby.l1_cntrl0.M.L1_Replacement::total       655691                      

system.ruby.l1_cntrl0.M.Fwd_GETX         |         520     33.42%     33.42% |         256     16.45%     49.87% |         520     33.42%     83.29% |         260     16.71%    100.00%
system.ruby.l1_cntrl0.M.Fwd_GETX::total          1556                      

system.ruby.l1_cntrl0.M.Fwd_GETS         |         489     29.25%     29.25% |         554     33.13%     62.38% |         312     18.66%     81.04% |         317     18.96%    100.00%
system.ruby.l1_cntrl0.M.Fwd_GETS::total          1672                      

system.ruby.l1_cntrl0.IS.Inv             |           0      0.00%      0.00% |           0      0.00%      0.00% |           0      0.00%      0.00% |           1    100.00%    100.00%
system.ruby.l1_cntrl0.IS.Inv::total                 1                      

system.ruby.l1_cntrl0.IS.Data_Exclusive  |       76973     25.02%     25.02% |       76549     24.89%     49.91% |       76867     24.99%     74.90% |       77221     25.10%    100.00%
system.ruby.l1_cntrl0.IS.Data_Exclusive::total       307610                      

system.ruby.l1_cntrl0.IS.DataS_fromL1    |         673     34.62%     34.62% |         358     18.42%     53.03% |         230     11.83%     64.87% |         683     35.13%    100.00%
system.ruby.l1_cntrl0.IS.DataS_fromL1::total         1944                      

system.ruby.l1_cntrl0.IS.Data_all_Acks   |        1267     47.97%     47.97% |         368     13.93%     61.91% |         477     18.06%     79.97% |         529     20.03%    100.00%
system.ruby.l1_cntrl0.IS.Data_all_Acks::total         2641                      

system.ruby.l1_cntrl0.IM.Data            |         124     32.38%     32.38% |         126     32.90%     65.27% |         130     33.94%     99.22% |           3      0.78%    100.00%
system.ruby.l1_cntrl0.IM.Data::total              383                      

system.ruby.l1_cntrl0.IM.Data_all_Acks   |      155401     24.98%     24.98% |      154923     24.91%     49.89% |      155509     25.00%     74.89% |      156158     25.11%    100.00%
system.ruby.l1_cntrl0.IM.Data_all_Acks::total       621991                      

system.ruby.l1_cntrl0.SM.Inv             |           0      0.00%      0.00% |           0      0.00%      0.00% |           1    100.00%    100.00% |           0      0.00%    100.00%
system.ruby.l1_cntrl0.SM.Inv::total                 1                      

system.ruby.l1_cntrl0.SM.Ack             |         116     19.40%     19.40% |         177     29.60%     49.00% |         179     29.93%     78.93% |         126     21.07%    100.00%
system.ruby.l1_cntrl0.SM.Ack::total               598                      

system.ruby.l1_cntrl0.SM.Ack_all         |         191     22.90%     22.90% |         288     34.53%     57.43% |         294     35.25%     92.69% |          61      7.31%    100.00%
system.ruby.l1_cntrl0.SM.Ack_all::total           834                      

system.ruby.l1_cntrl0.IS_I.Data_all_Acks |           0      0.00%      0.00% |           0      0.00%      0.00% |           0      0.00%      0.00% |           1    100.00%    100.00%
system.ruby.l1_cntrl0.IS_I.Data_all_Acks::total            1                      

system.ruby.l1_cntrl0.M_I.WB_Ack         |      229420     24.99%     24.99% |      228715     24.91%     49.90% |      229403     24.98%     74.88% |      230653     25.12%    100.00%
system.ruby.l1_cntrl0.M_I.WB_Ack::total        918191                      

system.ruby.l2_cntrl0.L1_GET_INSTR       |         506     26.33%     26.33% |         399     20.76%     47.09% |         440     22.89%     69.98% |         577     30.02%    100.00%
system.ruby.l2_cntrl0.L1_GET_INSTR::total         1922                      

system.ruby.l2_cntrl0.L1_GETS            |       77579     24.98%     24.98% |       77882     25.07%     50.05% |       77507     24.95%     75.00% |       77647     25.00%    100.00%
system.ruby.l2_cntrl0.L1_GETS::total           310615                      

system.ruby.l2_cntrl0.L1_GETX            |      156637     25.17%     25.17% |      155410     24.97%     50.13% |      155089     24.92%     75.05% |      155287     24.95%    100.00%
system.ruby.l2_cntrl0.L1_GETX::total           622423                      

system.ruby.l2_cntrl0.L1_UPGRADE         |          99     21.81%     21.81% |         183     40.31%     62.11% |          96     21.15%     83.26% |          76     16.74%    100.00%
system.ruby.l2_cntrl0.L1_UPGRADE::total           454                      

system.ruby.l2_cntrl0.L1_PUTX            |      229510     25.00%     25.00% |      229678     25.01%     50.01% |      229360     24.98%     74.99% |      229643     25.01%    100.00%
system.ruby.l2_cntrl0.L1_PUTX::total           918191                      

system.ruby.l2_cntrl0.L2_Replacement     |       51716     25.01%     25.01% |       51728     25.01%     50.02% |       51627     24.97%     74.99% |       51720     25.01%    100.00%
system.ruby.l2_cntrl0.L2_Replacement::total       206791                      

system.ruby.l2_cntrl0.L2_Replacement_clean |       64566     24.99%     24.99% |       64579     25.00%     49.99% |       64613     25.01%     74.99% |       64606     25.01%    100.00%
system.ruby.l2_cntrl0.L2_Replacement_clean::total       258364                      

system.ruby.l2_cntrl0.Mem_Data           |      120378     25.00%     25.00% |      120403     25.00%     50.00% |      120336     24.99%     74.99% |      120422     25.01%    100.00%
system.ruby.l2_cntrl0.Mem_Data::total          481539                      

system.ruby.l2_cntrl0.Mem_Ack            |      116282     25.00%     25.00% |      116307     25.00%     50.00% |      116240     24.99%     74.99% |      116326     25.01%    100.00%
system.ruby.l2_cntrl0.Mem_Ack::total           465155                      

system.ruby.l2_cntrl0.WB_Data            |        2001     24.43%     24.43% |        2133     26.04%     50.47% |        2020     24.66%     75.13% |        2037     24.87%    100.00%
system.ruby.l2_cntrl0.WB_Data::total             8191                      

system.ruby.l2_cntrl0.WB_Data_clean      |           7     33.33%     33.33% |           1      4.76%     38.10% |           2      9.52%     47.62% |          11     52.38%    100.00%
system.ruby.l2_cntrl0.WB_Data_clean::total           21                      

system.ruby.l2_cntrl0.Ack                |         571     25.51%     25.51% |         503     22.48%     47.99% |         526     23.50%     71.49% |         638     28.51%    100.00%
system.ruby.l2_cntrl0.Ack::total                 2238                      

system.ruby.l2_cntrl0.Ack_all            |         543     25.75%     25.75% |         497     23.57%     49.31% |         525     24.89%     74.21% |         544     25.79%    100.00%
system.ruby.l2_cntrl0.Ack_all::total             2109                      

system.ruby.l2_cntrl0.Unblock            |         475     24.43%     24.43% |         550     28.29%     52.73% |         461     23.71%     76.44% |         458     23.56%    100.00%
system.ruby.l2_cntrl0.Unblock::total             1944                      

system.ruby.l2_cntrl0.Exclusive_Unblock  |      233651     25.11%     25.11% |      232454     24.98%     50.10% |      232022     24.94%     75.03% |      232308     24.97%    100.00%
system.ruby.l2_cntrl0.Exclusive_Unblock::total       930435                      

system.ruby.l2_cntrl0.NP.L1_GET_INSTR    |         257     26.06%     26.06% |         224     22.72%     48.78% |         239     24.24%     73.02% |         266     26.98%    100.00%
system.ruby.l2_cntrl0.NP.L1_GET_INSTR::total          986                      

system.ruby.l2_cntrl0.NP.L1_GETS         |       65916     24.99%     24.99% |       65932     25.00%     49.99% |       65939     25.00%     74.99% |       65963     25.01%    100.00%
system.ruby.l2_cntrl0.NP.L1_GETS::total        263750                      

system.ruby.l2_cntrl0.NP.L1_GETX         |       54205     25.00%     25.00% |       54247     25.02%     50.02% |       54158     24.98%     75.00% |       54193     25.00%    100.00%
system.ruby.l2_cntrl0.NP.L1_GETX::total        216803                      

system.ruby.l2_cntrl0.SS.L1_GET_INSTR    |         135     23.04%     23.04% |         154     26.28%     49.32% |         143     24.40%     73.72% |         154     26.28%    100.00%
system.ruby.l2_cntrl0.SS.L1_GET_INSTR::total          586                      

system.ruby.l2_cntrl0.SS.L1_GETS         |         166     20.78%     20.78% |         269     33.67%     54.44% |         162     20.28%     74.72% |         202     25.28%    100.00%
system.ruby.l2_cntrl0.SS.L1_GETS::total           799                      

system.ruby.l2_cntrl0.SS.L1_GETX         |          90     23.50%     23.50% |          99     25.85%     49.35% |          96     25.07%     74.41% |          98     25.59%    100.00%
system.ruby.l2_cntrl0.SS.L1_GETX::total           383                      

system.ruby.l2_cntrl0.SS.L1_UPGRADE      |          98     21.73%     21.73% |         182     40.35%     62.08% |          95     21.06%     83.15% |          76     16.85%    100.00%
system.ruby.l2_cntrl0.SS.L1_UPGRADE::total          451                      

system.ruby.l2_cntrl0.SS.L2_Replacement  |         275     25.39%     25.39% |         268     24.75%     50.14% |         268     24.75%     74.88% |         272     25.12%    100.00%
system.ruby.l2_cntrl0.SS.L2_Replacement::total         1083                      

system.ruby.l2_cntrl0.SS.L2_Replacement_clean |         183     26.37%     26.37% |         151     21.76%     48.13% |         159     22.91%     71.04% |         201     28.96%    100.00%
system.ruby.l2_cntrl0.SS.L2_Replacement_clean::total          694                      

system.ruby.l2_cntrl0.M.L1_GETS          |       11012     25.10%     25.10% |       10952     24.97%     50.07% |       10909     24.87%     74.94% |       10992     25.06%    100.00%
system.ruby.l2_cntrl0.M.L1_GETS::total          43865                      

system.ruby.l2_cntrl0.M.L1_GETX          |      100781     24.98%     24.98% |      100984     25.03%     50.00% |      100792     24.98%     74.98% |      100948     25.02%    100.00%
system.ruby.l2_cntrl0.M.L1_GETX::total         403505                      

system.ruby.l2_cntrl0.M.L2_Replacement   |       50929     25.01%     25.01% |       50940     25.01%     50.02% |       50885     24.98%     75.00% |       50914     25.00%    100.00%
system.ruby.l2_cntrl0.M.L2_Replacement::total       203668                      

system.ruby.l2_cntrl0.M.L2_Replacement_clean |       63277     25.00%     25.00% |       63286     25.00%     50.00% |       63269     25.00%     75.00% |       63278     25.00%    100.00%
system.ruby.l2_cntrl0.M.L2_Replacement_clean::total       253110                      

system.ruby.l2_cntrl0.MT.L1_GETS         |         475     24.43%     24.43% |         550     28.29%     52.73% |         461     23.71%     76.44% |         458     23.56%    100.00%
system.ruby.l2_cntrl0.MT.L1_GETS::total          1944                      

system.ruby.l2_cntrl0.MT.L1_GETX         |        1551     92.16%     92.16% |          58      3.45%     95.60% |          33      1.96%     97.56% |          41      2.44%    100.00%
system.ruby.l2_cntrl0.MT.L1_GETX::total          1683                      

system.ruby.l2_cntrl0.MT.L1_PUTX         |      229510     25.00%     25.00% |      229678     25.01%     50.01% |      229360     24.98%     74.99% |      229643     25.01%    100.00%
system.ruby.l2_cntrl0.MT.L1_PUTX::total        918191                      

system.ruby.l2_cntrl0.MT.L2_Replacement  |         512     25.10%     25.10% |         520     25.49%     50.59% |         474     23.24%     73.82% |         534     26.18%    100.00%
system.ruby.l2_cntrl0.MT.L2_Replacement::total         2040                      

system.ruby.l2_cntrl0.MT.L2_Replacement_clean |        1106     24.25%     24.25% |        1142     25.04%     49.30% |        1185     25.99%     75.29% |        1127     24.71%    100.00%
system.ruby.l2_cntrl0.MT.L2_Replacement_clean::total         4560                      

system.ruby.l2_cntrl0.M_I.L1_GET_INSTR   |          16     41.03%     41.03% |           0      0.00%     41.03% |           5     12.82%     53.85% |          18     46.15%    100.00%
system.ruby.l2_cntrl0.M_I.L1_GET_INSTR::total           39                      

system.ruby.l2_cntrl0.M_I.L1_GETS        |           5     25.00%     25.00% |           6     30.00%     55.00% |           5     25.00%     80.00% |           4     20.00%    100.00%
system.ruby.l2_cntrl0.M_I.L1_GETS::total           20                      

system.ruby.l2_cntrl0.M_I.L1_GETX        |          10     30.30%     30.30% |           6     18.18%     48.48% |          10     30.30%     78.79% |           7     21.21%    100.00%
system.ruby.l2_cntrl0.M_I.L1_GETX::total           33                      

system.ruby.l2_cntrl0.M_I.Mem_Ack        |      116282     25.00%     25.00% |      116307     25.00%     50.00% |      116240     24.99%     74.99% |      116326     25.01%    100.00%
system.ruby.l2_cntrl0.M_I.Mem_Ack::total       465155                      

system.ruby.l2_cntrl0.MT_I.WB_Data       |         512     25.12%     25.12% |         520     25.52%     50.64% |         474     23.26%     73.90% |         532     26.10%    100.00%
system.ruby.l2_cntrl0.MT_I.WB_Data::total         2038                      

system.ruby.l2_cntrl0.MT_I.Ack_all       |           0      0.00%      0.00% |           0      0.00%      0.00% |           0      0.00%      0.00% |           2    100.00%    100.00%
system.ruby.l2_cntrl0.MT_I.Ack_all::total            2                      

system.ruby.l2_cntrl0.MCT_I.WB_Data      |        1021     24.14%     24.14% |        1064     25.15%     49.29% |        1087     25.70%     74.99% |        1058     25.01%    100.00%
system.ruby.l2_cntrl0.MCT_I.WB_Data::total         4230                      

system.ruby.l2_cntrl0.MCT_I.Ack_all      |          85     25.76%     25.76% |          78     23.64%     49.39% |          98     29.70%     79.09% |          69     20.91%    100.00%
system.ruby.l2_cntrl0.MCT_I.Ack_all::total          330                      

system.ruby.l2_cntrl0.I_I.L1_GET_INSTR   |          20     37.04%     37.04% |           3      5.56%     42.59% |           5      9.26%     51.85% |          26     48.15%    100.00%
system.ruby.l2_cntrl0.I_I.L1_GET_INSTR::total           54                      

system.ruby.l2_cntrl0.I_I.Ack            |         217     25.06%     25.06% |         169     19.52%     44.57% |         187     21.59%     66.17% |         293     33.83%    100.00%
system.ruby.l2_cntrl0.I_I.Ack::total              866                      

system.ruby.l2_cntrl0.I_I.Ack_all        |         183     26.37%     26.37% |         151     21.76%     48.13% |         159     22.91%     71.04% |         201     28.96%    100.00%
system.ruby.l2_cntrl0.I_I.Ack_all::total          694                      

system.ruby.l2_cntrl0.S_I.Ack            |         354     25.80%     25.80% |         334     24.34%     50.15% |         339     24.71%     74.85% |         345     25.15%    100.00%
system.ruby.l2_cntrl0.S_I.Ack::total             1372                      

system.ruby.l2_cntrl0.S_I.Ack_all        |         275     25.39%     25.39% |         268     24.75%     50.14% |         268     24.75%     74.88% |         272     25.12%    100.00%
system.ruby.l2_cntrl0.S_I.Ack_all::total         1083                      

system.ruby.l2_cntrl0.ISS.L1_GETS        |           2     40.00%     40.00% |           0      0.00%     40.00% |           0      0.00%     40.00% |           3     60.00%    100.00%
system.ruby.l2_cntrl0.ISS.L1_GETS::total            5                      

system.ruby.l2_cntrl0.ISS.Mem_Data       |       65914     24.99%     24.99% |       65932     25.00%     49.99% |       65939     25.00%     74.99% |       65960     25.01%    100.00%
system.ruby.l2_cntrl0.ISS.Mem_Data::total       263745                      

system.ruby.l2_cntrl0.IS.L1_GET_INSTR    |          78     30.35%     30.35% |          18      7.00%     37.35% |          48     18.68%     56.03% |         113     43.97%    100.00%
system.ruby.l2_cntrl0.IS.L1_GET_INSTR::total          257                      

system.ruby.l2_cntrl0.IS.L1_GETS         |           1     25.00%     25.00% |           0      0.00%     25.00% |           0      0.00%     25.00% |           3     75.00%    100.00%
system.ruby.l2_cntrl0.IS.L1_GETS::total             4                      

system.ruby.l2_cntrl0.IS.Mem_Data        |         259     26.14%     26.14% |         224     22.60%     48.74% |         239     24.12%     72.86% |         269     27.14%    100.00%
system.ruby.l2_cntrl0.IS.Mem_Data::total          991                      

system.ruby.l2_cntrl0.IM.Mem_Data        |       54205     25.00%     25.00% |       54247     25.02%     50.02% |       54158     24.98%     75.00% |       54193     25.00%    100.00%
system.ruby.l2_cntrl0.IM.Mem_Data::total       216803                      

system.ruby.l2_cntrl0.SS_MB.L1_GETS      |           2      3.08%      3.08% |          59     90.77%     93.85% |           3      4.62%     98.46% |           1      1.54%    100.00%
system.ruby.l2_cntrl0.SS_MB.L1_GETS::total           65                      

system.ruby.l2_cntrl0.SS_MB.L1_GETX      |           0      0.00%      0.00% |           8    100.00%    100.00% |           0      0.00%    100.00% |           0      0.00%    100.00%
system.ruby.l2_cntrl0.SS_MB.L1_GETX::total            8                      

system.ruby.l2_cntrl0.SS_MB.L1_UPGRADE   |           0      0.00%      0.00% |           1    100.00%    100.00% |           0      0.00%    100.00% |           0      0.00%    100.00%
system.ruby.l2_cntrl0.SS_MB.L1_UPGRADE::total            1                      

system.ruby.l2_cntrl0.SS_MB.Exclusive_Unblock |         188     22.54%     22.54% |         281     33.69%     56.24% |         191     22.90%     79.14% |         174     20.86%    100.00%
system.ruby.l2_cntrl0.SS_MB.Exclusive_Unblock::total          834                      

system.ruby.l2_cntrl0.MT_MB.L1_GETS      |           0      0.00%      0.00% |           5    100.00%    100.00% |           0      0.00%    100.00% |           0      0.00%    100.00%
system.ruby.l2_cntrl0.MT_MB.L1_GETS::total            5                      

system.ruby.l2_cntrl0.MT_MB.L1_GETX      |           0      0.00%      0.00% |           4    100.00%    100.00% |           0      0.00%    100.00% |           0      0.00%    100.00%
system.ruby.l2_cntrl0.MT_MB.L1_GETX::total            4                      

system.ruby.l2_cntrl0.MT_MB.Exclusive_Unblock |      233463     25.11%     25.11% |      232173     24.98%     50.09% |      231831     24.94%     75.03% |      232134     24.97%    100.00%
system.ruby.l2_cntrl0.MT_MB.Exclusive_Unblock::total       929601                      

system.ruby.l2_cntrl0.MT_IIB.L1_GETS     |           0      0.00%      0.00% |         107     79.85%     79.85% |          26     19.40%     99.25% |           1      0.75%    100.00%
system.ruby.l2_cntrl0.MT_IIB.L1_GETS::total          134                      

system.ruby.l2_cntrl0.MT_IIB.L1_GETX     |           0      0.00%      0.00% |           4    100.00%    100.00% |           0      0.00%    100.00% |           0      0.00%    100.00%
system.ruby.l2_cntrl0.MT_IIB.L1_GETX::total            4                      

system.ruby.l2_cntrl0.MT_IIB.WB_Data     |         255     21.61%     21.61% |         385     32.63%     54.24% |         339     28.73%     82.97% |         201     17.03%    100.00%
system.ruby.l2_cntrl0.MT_IIB.WB_Data::total         1180                      

system.ruby.l2_cntrl0.MT_IIB.WB_Data_clean |           3     37.50%     37.50% |           0      0.00%     37.50% |           0      0.00%     37.50% |           5     62.50%    100.00%
system.ruby.l2_cntrl0.MT_IIB.WB_Data_clean::total            8                      

system.ruby.l2_cntrl0.MT_IIB.Unblock     |         217     28.70%     28.70% |         165     21.83%     50.53% |         122     16.14%     66.67% |         252     33.33%    100.00%
system.ruby.l2_cntrl0.MT_IIB.Unblock::total          756                      

system.ruby.l2_cntrl0.MT_IB.L1_GETS      |           0      0.00%      0.00% |           0      0.00%      0.00% |           1    100.00%    100.00% |           0      0.00%    100.00%
system.ruby.l2_cntrl0.MT_IB.L1_GETS::total            1                      

system.ruby.l2_cntrl0.MT_IB.WB_Data      |         213     28.67%     28.67% |         164     22.07%     50.74% |         120     16.15%     66.89% |         246     33.11%    100.00%
system.ruby.l2_cntrl0.MT_IB.WB_Data::total          743                      

system.ruby.l2_cntrl0.MT_IB.WB_Data_clean |           4     30.77%     30.77% |           1      7.69%     38.46% |           2     15.38%     53.85% |           6     46.15%    100.00%
system.ruby.l2_cntrl0.MT_IB.WB_Data_clean::total           13                      

system.ruby.l2_cntrl0.MT_SB.L1_GETS      |           0      0.00%      0.00% |           2      8.70%      8.70% |           1      4.35%     13.04% |          20     86.96%    100.00%
system.ruby.l2_cntrl0.MT_SB.L1_GETS::total           23                      

system.ruby.l2_cntrl0.MT_SB.L1_UPGRADE   |           1     50.00%     50.00% |           0      0.00%     50.00% |           1     50.00%    100.00% |           0      0.00%    100.00%
system.ruby.l2_cntrl0.MT_SB.L1_UPGRADE::total            2                      

system.ruby.l2_cntrl0.MT_SB.Unblock      |         258     21.72%     21.72% |         385     32.41%     54.12% |         339     28.54%     82.66% |         206     17.34%    100.00%
system.ruby.l2_cntrl0.MT_SB.Unblock::total         1188                      

system.ruby.dir_cntrl0.Fetch             |      120378     25.00%     25.00% |      120403     25.00%     50.00% |      120336     24.99%     74.99% |      120422     25.01%    100.00%
system.ruby.dir_cntrl0.Fetch::total            481539                      

system.ruby.dir_cntrl0.Data              |       52737     24.99%     24.99% |       52792     25.02%     50.01% |       52714     24.98%     74.99% |       52778     25.01%    100.00%
system.ruby.dir_cntrl0.Data::total             211021                      

system.ruby.dir_cntrl0.Memory_Data       |      120378     25.00%     25.00% |      120403     25.00%     50.00% |      120336     24.99%     74.99% |      120422     25.01%    100.00%
system.ruby.dir_cntrl0.Memory_Data::total       481539                      

system.ruby.dir_cntrl0.Memory_Ack        |       52737     24.99%     24.99% |       52792     25.02%     50.01% |       52714     24.98%     74.99% |       52778     25.01%    100.00%
system.ruby.dir_cntrl0.Memory_Ack::total       211021                      

system.ruby.dir_cntrl0.CleanReplacement  |       63545     25.00%     25.00% |       63515     24.99%     50.00% |       63526     25.00%     74.99% |       63548     25.01%    100.00%
system.ruby.dir_cntrl0.CleanReplacement::total       254134                      

system.ruby.dir_cntrl0.I.Fetch           |      120378     25.00%     25.00% |      120403     25.00%     50.00% |      120336     24.99%     74.99% |      120422     25.01%    100.00%
system.ruby.dir_cntrl0.I.Fetch::total          481539                      

system.ruby.dir_cntrl0.M.Data            |       52737     24.99%     24.99% |       52792     25.02%     50.01% |       52714     24.98%     74.99% |       52778     25.01%    100.00%
system.ruby.dir_cntrl0.M.Data::total           211021                      

system.ruby.dir_cntrl0.M.CleanReplacement |       63545     25.00%     25.00% |       63515     24.99%     50.00% |       63526     25.00%     74.99% |       63548     25.01%    100.00%
system.ruby.dir_cntrl0.M.CleanReplacement::total       254134                      

system.ruby.dir_cntrl0.IM.Memory_Data    |      120378     25.00%     25.00% |      120403     25.00%     50.00% |      120336     24.99%     74.99% |      120422     25.01%    100.00%
system.ruby.dir_cntrl0.IM.Memory_Data::total       481539                      

system.ruby.dir_cntrl0.MI.Memory_Ack     |       52737     24.99%     24.99% |       52792     25.02%     50.01% |       52714     24.98%     74.99% |       52778     25.01%    100.00%
system.ruby.dir_cntrl0.MI.Memory_Ack::total       211021                      


---------- End Simulation Statistics   ----------
