
---------- Begin Simulation Statistics ----------
sim_seconds                                  0.020400                       # Number of seconds simulated
sim_ticks                                 20399506000                       # Number of ticks simulated
final_tick                                20399506000                       # Number of ticks from beginning of simulation (restored from checkpoints and never reset)
sim_freq                                 1000000000000                       # Frequency of simulated ticks
host_inst_rate                                 155515                       # Simulator instruction rate (inst/s)
host_op_rate                                   155515                       # Simulator op (including micro ops) rate (op/s)
host_tick_rate                               54384851                       # Simulator tick rate (ticks/s)
host_mem_usage                                 369860                       # Number of bytes of host memory used
host_seconds                                   375.10                       # Real time elapsed on the host
sim_insts                                    58332813                       # Number of instructions simulated
sim_ops                                      58332813                       # Number of ops (including micro ops) simulated
system.physmem.bytes_read::cpu0.inst           170304                       # Number of bytes read from this memory
system.physmem.bytes_read::cpu0.data          5484672                       # Number of bytes read from this memory
system.physmem.bytes_read::cpu1.inst            23488                       # Number of bytes read from this memory
system.physmem.bytes_read::cpu1.data          3169216                       # Number of bytes read from this memory
system.physmem.bytes_read::cpu2.inst             8064                       # Number of bytes read from this memory
system.physmem.bytes_read::cpu2.data          3167424                       # Number of bytes read from this memory
system.physmem.bytes_read::cpu3.inst             5184                       # Number of bytes read from this memory
system.physmem.bytes_read::cpu3.data          3163712                       # Number of bytes read from this memory
system.physmem.bytes_read::total             15192064                       # Number of bytes read from this memory
system.physmem.bytes_inst_read::cpu0.inst       170304                       # Number of instructions bytes read from this memory
system.physmem.bytes_inst_read::cpu1.inst        23488                       # Number of instructions bytes read from this memory
system.physmem.bytes_inst_read::cpu2.inst         8064                       # Number of instructions bytes read from this memory
system.physmem.bytes_inst_read::cpu3.inst         5184                       # Number of instructions bytes read from this memory
system.physmem.bytes_inst_read::total          207040                       # Number of instructions bytes read from this memory
system.physmem.bytes_written::writebacks      7334336                       # Number of bytes written to this memory
system.physmem.bytes_written::total           7334336                       # Number of bytes written to this memory
system.physmem.num_reads::cpu0.inst              2661                       # Number of read requests responded to by this memory
system.physmem.num_reads::cpu0.data             85698                       # Number of read requests responded to by this memory
system.physmem.num_reads::cpu1.inst               367                       # Number of read requests responded to by this memory
system.physmem.num_reads::cpu1.data             49519                       # Number of read requests responded to by this memory
system.physmem.num_reads::cpu2.inst               126                       # Number of read requests responded to by this memory
system.physmem.num_reads::cpu2.data             49491                       # Number of read requests responded to by this memory
system.physmem.num_reads::cpu3.inst                81                       # Number of read requests responded to by this memory
system.physmem.num_reads::cpu3.data             49433                       # Number of read requests responded to by this memory
system.physmem.num_reads::total                237376                       # Number of read requests responded to by this memory
system.physmem.num_writes::writebacks          114599                       # Number of write requests responded to by this memory
system.physmem.num_writes::total               114599                       # Number of write requests responded to by this memory
system.physmem.bw_read::cpu0.inst             8348437                       # Total read bandwidth from this memory (bytes/s)
system.physmem.bw_read::cpu0.data           268862981                       # Total read bandwidth from this memory (bytes/s)
system.physmem.bw_read::cpu1.inst             1151400                       # Total read bandwidth from this memory (bytes/s)
system.physmem.bw_read::cpu1.data           155357488                       # Total read bandwidth from this memory (bytes/s)
system.physmem.bw_read::cpu2.inst              395304                       # Total read bandwidth from this memory (bytes/s)
system.physmem.bw_read::cpu2.data           155269642                       # Total read bandwidth from this memory (bytes/s)
system.physmem.bw_read::cpu3.inst              254124                       # Total read bandwidth from this memory (bytes/s)
system.physmem.bw_read::cpu3.data           155087677                       # Total read bandwidth from this memory (bytes/s)
system.physmem.bw_read::total               744727054                       # Total read bandwidth from this memory (bytes/s)
system.physmem.bw_inst_read::cpu0.inst        8348437                       # Instruction read bandwidth from this memory (bytes/s)
system.physmem.bw_inst_read::cpu1.inst        1151400                       # Instruction read bandwidth from this memory (bytes/s)
system.physmem.bw_inst_read::cpu2.inst         395304                       # Instruction read bandwidth from this memory (bytes/s)
system.physmem.bw_inst_read::cpu3.inst         254124                       # Instruction read bandwidth from this memory (bytes/s)
system.physmem.bw_inst_read::total           10149265                       # Instruction read bandwidth from this memory (bytes/s)
system.physmem.bw_write::writebacks         359534981                       # Write bandwidth from this memory (bytes/s)
system.physmem.bw_write::total              359534981                       # Write bandwidth from this memory (bytes/s)
system.physmem.bw_total::writebacks         359534981                       # Total bandwidth to/from this memory (bytes/s)
system.physmem.bw_total::cpu0.inst            8348437                       # Total bandwidth to/from this memory (bytes/s)
system.physmem.bw_total::cpu0.data          268862981                       # Total bandwidth to/from this memory (bytes/s)
system.physmem.bw_total::cpu1.inst            1151400                       # Total bandwidth to/from this memory (bytes/s)
system.physmem.bw_total::cpu1.data          155357488                       # Total bandwidth to/from this memory (bytes/s)
system.physmem.bw_total::cpu2.inst             395304                       # Total bandwidth to/from this memory (bytes/s)
system.physmem.bw_total::cpu2.data          155269642                       # Total bandwidth to/from this memory (bytes/s)
system.physmem.bw_total::cpu3.inst             254124                       # Total bandwidth to/from this memory (bytes/s)
system.physmem.bw_total::cpu3.data          155087677                       # Total bandwidth to/from this memory (bytes/s)
system.physmem.bw_total::total             1104262035                       # Total bandwidth to/from this memory (bytes/s)
workload.num_syscalls                             247                       # Number of system calls
system.l2.replacements                         236423                       # number of replacements
system.l2.tagsinuse                       2407.899283                       # Cycle average of tags in use
system.l2.total_refs                            37121                       # Total number of references to valid blocks.
system.l2.sampled_refs                         239470                       # Sample count of references to valid blocks.
system.l2.avg_refs                           0.155013                       # Average number of references to valid blocks.
system.l2.warmup_cycle                    16659039000                       # Cycle when the warmup percentage was hit.
system.l2.occ_blocks::writebacks          1699.902425                       # Average occupied blocks per requestor
system.l2.occ_blocks::cpu0.inst             78.151140                       # Average occupied blocks per requestor
system.l2.occ_blocks::cpu0.data            188.394713                       # Average occupied blocks per requestor
system.l2.occ_blocks::cpu1.inst              1.111255                       # Average occupied blocks per requestor
system.l2.occ_blocks::cpu1.data            140.111970                       # Average occupied blocks per requestor
system.l2.occ_blocks::cpu2.inst              0.501611                       # Average occupied blocks per requestor
system.l2.occ_blocks::cpu2.data            149.036050                       # Average occupied blocks per requestor
system.l2.occ_blocks::cpu3.inst              0.166780                       # Average occupied blocks per requestor
system.l2.occ_blocks::cpu3.data            150.523340                       # Average occupied blocks per requestor
system.l2.occ_percent::writebacks            0.415015                       # Average percentage of cache occupancy
system.l2.occ_percent::cpu0.inst             0.019080                       # Average percentage of cache occupancy
system.l2.occ_percent::cpu0.data             0.045995                       # Average percentage of cache occupancy
system.l2.occ_percent::cpu1.inst             0.000271                       # Average percentage of cache occupancy
system.l2.occ_percent::cpu1.data             0.034207                       # Average percentage of cache occupancy
system.l2.occ_percent::cpu2.inst             0.000122                       # Average percentage of cache occupancy
system.l2.occ_percent::cpu2.data             0.036386                       # Average percentage of cache occupancy
system.l2.occ_percent::cpu3.inst             0.000041                       # Average percentage of cache occupancy
system.l2.occ_percent::cpu3.data             0.036749                       # Average percentage of cache occupancy
system.l2.occ_percent::total                 0.587866                       # Average percentage of cache occupancy
system.l2.ReadReq_hits::cpu0.inst                3339                       # number of ReadReq hits
system.l2.ReadReq_hits::cpu0.data                 585                       # number of ReadReq hits
system.l2.ReadReq_hits::cpu1.inst                 649                       # number of ReadReq hits
system.l2.ReadReq_hits::cpu1.data                 451                       # number of ReadReq hits
system.l2.ReadReq_hits::cpu2.inst                 863                       # number of ReadReq hits
system.l2.ReadReq_hits::cpu2.data                 297                       # number of ReadReq hits
system.l2.ReadReq_hits::cpu3.inst                 617                       # number of ReadReq hits
system.l2.ReadReq_hits::cpu3.data                 351                       # number of ReadReq hits
system.l2.ReadReq_hits::total                    7152                       # number of ReadReq hits
system.l2.Writeback_hits::writebacks           116722                       # number of Writeback hits
system.l2.Writeback_hits::total                116722                       # number of Writeback hits
system.l2.UpgradeReq_hits::cpu0.data                4                       # number of UpgradeReq hits
system.l2.UpgradeReq_hits::cpu1.data                1                       # number of UpgradeReq hits
system.l2.UpgradeReq_hits::cpu2.data                2                       # number of UpgradeReq hits
system.l2.UpgradeReq_hits::cpu3.data                1                       # number of UpgradeReq hits
system.l2.UpgradeReq_hits::total                    8                       # number of UpgradeReq hits
system.l2.SCUpgradeReq_hits::cpu0.data              2                       # number of SCUpgradeReq hits
system.l2.SCUpgradeReq_hits::cpu1.data              1                       # number of SCUpgradeReq hits
system.l2.SCUpgradeReq_hits::cpu3.data              3                       # number of SCUpgradeReq hits
system.l2.SCUpgradeReq_hits::total                  6                       # number of SCUpgradeReq hits
system.l2.ReadExReq_hits::cpu0.data                71                       # number of ReadExReq hits
system.l2.ReadExReq_hits::cpu1.data                33                       # number of ReadExReq hits
system.l2.ReadExReq_hits::cpu2.data                26                       # number of ReadExReq hits
system.l2.ReadExReq_hits::cpu3.data                 6                       # number of ReadExReq hits
system.l2.ReadExReq_hits::total                   136                       # number of ReadExReq hits
system.l2.demand_hits::cpu0.inst                 3339                       # number of demand (read+write) hits
system.l2.demand_hits::cpu0.data                  656                       # number of demand (read+write) hits
system.l2.demand_hits::cpu1.inst                  649                       # number of demand (read+write) hits
system.l2.demand_hits::cpu1.data                  484                       # number of demand (read+write) hits
system.l2.demand_hits::cpu2.inst                  863                       # number of demand (read+write) hits
system.l2.demand_hits::cpu2.data                  323                       # number of demand (read+write) hits
system.l2.demand_hits::cpu3.inst                  617                       # number of demand (read+write) hits
system.l2.demand_hits::cpu3.data                  357                       # number of demand (read+write) hits
system.l2.demand_hits::total                     7288                       # number of demand (read+write) hits
system.l2.overall_hits::cpu0.inst                3339                       # number of overall hits
system.l2.overall_hits::cpu0.data                 656                       # number of overall hits
system.l2.overall_hits::cpu1.inst                 649                       # number of overall hits
system.l2.overall_hits::cpu1.data                 484                       # number of overall hits
system.l2.overall_hits::cpu2.inst                 863                       # number of overall hits
system.l2.overall_hits::cpu2.data                 323                       # number of overall hits
system.l2.overall_hits::cpu3.inst                 617                       # number of overall hits
system.l2.overall_hits::cpu3.data                 357                       # number of overall hits
system.l2.overall_hits::total                    7288                       # number of overall hits
system.l2.ReadReq_misses::cpu0.inst              2671                       # number of ReadReq misses
system.l2.ReadReq_misses::cpu0.data             38202                       # number of ReadReq misses
system.l2.ReadReq_misses::cpu1.inst               384                       # number of ReadReq misses
system.l2.ReadReq_misses::cpu1.data             37155                       # number of ReadReq misses
system.l2.ReadReq_misses::cpu2.inst               188                       # number of ReadReq misses
system.l2.ReadReq_misses::cpu2.data             37141                       # number of ReadReq misses
system.l2.ReadReq_misses::cpu3.inst               102                       # number of ReadReq misses
system.l2.ReadReq_misses::cpu3.data             37064                       # number of ReadReq misses
system.l2.ReadReq_misses::total                152907                       # number of ReadReq misses
system.l2.UpgradeReq_misses::cpu0.data              5                       # number of UpgradeReq misses
system.l2.UpgradeReq_misses::cpu1.data              1                       # number of UpgradeReq misses
system.l2.UpgradeReq_misses::cpu2.data              3                       # number of UpgradeReq misses
system.l2.UpgradeReq_misses::total                  9                       # number of UpgradeReq misses
system.l2.SCUpgradeReq_misses::cpu0.data            1                       # number of SCUpgradeReq misses
system.l2.SCUpgradeReq_misses::cpu3.data            1                       # number of SCUpgradeReq misses
system.l2.SCUpgradeReq_misses::total                2                       # number of SCUpgradeReq misses
system.l2.ReadExReq_misses::cpu0.data           47510                       # number of ReadExReq misses
system.l2.ReadExReq_misses::cpu1.data           12377                       # number of ReadExReq misses
system.l2.ReadExReq_misses::cpu2.data           12379                       # number of ReadExReq misses
system.l2.ReadExReq_misses::cpu3.data           12386                       # number of ReadExReq misses
system.l2.ReadExReq_misses::total               84652                       # number of ReadExReq misses
system.l2.demand_misses::cpu0.inst               2671                       # number of demand (read+write) misses
system.l2.demand_misses::cpu0.data              85712                       # number of demand (read+write) misses
system.l2.demand_misses::cpu1.inst                384                       # number of demand (read+write) misses
system.l2.demand_misses::cpu1.data              49532                       # number of demand (read+write) misses
system.l2.demand_misses::cpu2.inst                188                       # number of demand (read+write) misses
system.l2.demand_misses::cpu2.data              49520                       # number of demand (read+write) misses
system.l2.demand_misses::cpu3.inst                102                       # number of demand (read+write) misses
system.l2.demand_misses::cpu3.data              49450                       # number of demand (read+write) misses
system.l2.demand_misses::total                 237559                       # number of demand (read+write) misses
system.l2.overall_misses::cpu0.inst              2671                       # number of overall misses
system.l2.overall_misses::cpu0.data             85712                       # number of overall misses
system.l2.overall_misses::cpu1.inst               384                       # number of overall misses
system.l2.overall_misses::cpu1.data             49532                       # number of overall misses
system.l2.overall_misses::cpu2.inst               188                       # number of overall misses
system.l2.overall_misses::cpu2.data             49520                       # number of overall misses
system.l2.overall_misses::cpu3.inst               102                       # number of overall misses
system.l2.overall_misses::cpu3.data             49450                       # number of overall misses
system.l2.overall_misses::total                237559                       # number of overall misses
system.l2.ReadReq_miss_latency::cpu0.inst    139000000                       # number of ReadReq miss cycles
system.l2.ReadReq_miss_latency::cpu0.data   2015683000                       # number of ReadReq miss cycles
system.l2.ReadReq_miss_latency::cpu1.inst     19981000                       # number of ReadReq miss cycles
system.l2.ReadReq_miss_latency::cpu1.data   1960605000                       # number of ReadReq miss cycles
system.l2.ReadReq_miss_latency::cpu2.inst      9361000                       # number of ReadReq miss cycles
system.l2.ReadReq_miss_latency::cpu2.data   1960300000                       # number of ReadReq miss cycles
system.l2.ReadReq_miss_latency::cpu3.inst      5108000                       # number of ReadReq miss cycles
system.l2.ReadReq_miss_latency::cpu3.data   1956206000                       # number of ReadReq miss cycles
system.l2.ReadReq_miss_latency::total      8066244000                       # number of ReadReq miss cycles
system.l2.UpgradeReq_miss_latency::cpu0.data        52000                       # number of UpgradeReq miss cycles
system.l2.UpgradeReq_miss_latency::cpu1.data        52000                       # number of UpgradeReq miss cycles
system.l2.UpgradeReq_miss_latency::cpu2.data        53000                       # number of UpgradeReq miss cycles
system.l2.UpgradeReq_miss_latency::total       157000                       # number of UpgradeReq miss cycles
system.l2.ReadExReq_miss_latency::cpu0.data   2509609000                       # number of ReadExReq miss cycles
system.l2.ReadExReq_miss_latency::cpu1.data    673473000                       # number of ReadExReq miss cycles
system.l2.ReadExReq_miss_latency::cpu2.data    682419000                       # number of ReadExReq miss cycles
system.l2.ReadExReq_miss_latency::cpu3.data    684585000                       # number of ReadExReq miss cycles
system.l2.ReadExReq_miss_latency::total    4550086000                       # number of ReadExReq miss cycles
system.l2.demand_miss_latency::cpu0.inst    139000000                       # number of demand (read+write) miss cycles
system.l2.demand_miss_latency::cpu0.data   4525292000                       # number of demand (read+write) miss cycles
system.l2.demand_miss_latency::cpu1.inst     19981000                       # number of demand (read+write) miss cycles
system.l2.demand_miss_latency::cpu1.data   2634078000                       # number of demand (read+write) miss cycles
system.l2.demand_miss_latency::cpu2.inst      9361000                       # number of demand (read+write) miss cycles
system.l2.demand_miss_latency::cpu2.data   2642719000                       # number of demand (read+write) miss cycles
system.l2.demand_miss_latency::cpu3.inst      5108000                       # number of demand (read+write) miss cycles
system.l2.demand_miss_latency::cpu3.data   2640791000                       # number of demand (read+write) miss cycles
system.l2.demand_miss_latency::total      12616330000                       # number of demand (read+write) miss cycles
system.l2.overall_miss_latency::cpu0.inst    139000000                       # number of overall miss cycles
system.l2.overall_miss_latency::cpu0.data   4525292000                       # number of overall miss cycles
system.l2.overall_miss_latency::cpu1.inst     19981000                       # number of overall miss cycles
system.l2.overall_miss_latency::cpu1.data   2634078000                       # number of overall miss cycles
system.l2.overall_miss_latency::cpu2.inst      9361000                       # number of overall miss cycles
system.l2.overall_miss_latency::cpu2.data   2642719000                       # number of overall miss cycles
system.l2.overall_miss_latency::cpu3.inst      5108000                       # number of overall miss cycles
system.l2.overall_miss_latency::cpu3.data   2640791000                       # number of overall miss cycles
system.l2.overall_miss_latency::total     12616330000                       # number of overall miss cycles
system.l2.ReadReq_accesses::cpu0.inst            6010                       # number of ReadReq accesses(hits+misses)
system.l2.ReadReq_accesses::cpu0.data           38787                       # number of ReadReq accesses(hits+misses)
system.l2.ReadReq_accesses::cpu1.inst            1033                       # number of ReadReq accesses(hits+misses)
system.l2.ReadReq_accesses::cpu1.data           37606                       # number of ReadReq accesses(hits+misses)
system.l2.ReadReq_accesses::cpu2.inst            1051                       # number of ReadReq accesses(hits+misses)
system.l2.ReadReq_accesses::cpu2.data           37438                       # number of ReadReq accesses(hits+misses)
system.l2.ReadReq_accesses::cpu3.inst             719                       # number of ReadReq accesses(hits+misses)
system.l2.ReadReq_accesses::cpu3.data           37415                       # number of ReadReq accesses(hits+misses)
system.l2.ReadReq_accesses::total              160059                       # number of ReadReq accesses(hits+misses)
system.l2.Writeback_accesses::writebacks       116722                       # number of Writeback accesses(hits+misses)
system.l2.Writeback_accesses::total            116722                       # number of Writeback accesses(hits+misses)
system.l2.UpgradeReq_accesses::cpu0.data            9                       # number of UpgradeReq accesses(hits+misses)
system.l2.UpgradeReq_accesses::cpu1.data            2                       # number of UpgradeReq accesses(hits+misses)
system.l2.UpgradeReq_accesses::cpu2.data            5                       # number of UpgradeReq accesses(hits+misses)
system.l2.UpgradeReq_accesses::cpu3.data            1                       # number of UpgradeReq accesses(hits+misses)
system.l2.UpgradeReq_accesses::total               17                       # number of UpgradeReq accesses(hits+misses)
system.l2.SCUpgradeReq_accesses::cpu0.data            3                       # number of SCUpgradeReq accesses(hits+misses)
system.l2.SCUpgradeReq_accesses::cpu1.data            1                       # number of SCUpgradeReq accesses(hits+misses)
system.l2.SCUpgradeReq_accesses::cpu3.data            4                       # number of SCUpgradeReq accesses(hits+misses)
system.l2.SCUpgradeReq_accesses::total              8                       # number of SCUpgradeReq accesses(hits+misses)
system.l2.ReadExReq_accesses::cpu0.data         47581                       # number of ReadExReq accesses(hits+misses)
system.l2.ReadExReq_accesses::cpu1.data         12410                       # number of ReadExReq accesses(hits+misses)
system.l2.ReadExReq_accesses::cpu2.data         12405                       # number of ReadExReq accesses(hits+misses)
system.l2.ReadExReq_accesses::cpu3.data         12392                       # number of ReadExReq accesses(hits+misses)
system.l2.ReadExReq_accesses::total             84788                       # number of ReadExReq accesses(hits+misses)
system.l2.demand_accesses::cpu0.inst             6010                       # number of demand (read+write) accesses
system.l2.demand_accesses::cpu0.data            86368                       # number of demand (read+write) accesses
system.l2.demand_accesses::cpu1.inst             1033                       # number of demand (read+write) accesses
system.l2.demand_accesses::cpu1.data            50016                       # number of demand (read+write) accesses
system.l2.demand_accesses::cpu2.inst             1051                       # number of demand (read+write) accesses
system.l2.demand_accesses::cpu2.data            49843                       # number of demand (read+write) accesses
system.l2.demand_accesses::cpu3.inst              719                       # number of demand (read+write) accesses
system.l2.demand_accesses::cpu3.data            49807                       # number of demand (read+write) accesses
system.l2.demand_accesses::total               244847                       # number of demand (read+write) accesses
system.l2.overall_accesses::cpu0.inst            6010                       # number of overall (read+write) accesses
system.l2.overall_accesses::cpu0.data           86368                       # number of overall (read+write) accesses
system.l2.overall_accesses::cpu1.inst            1033                       # number of overall (read+write) accesses
system.l2.overall_accesses::cpu1.data           50016                       # number of overall (read+write) accesses
system.l2.overall_accesses::cpu2.inst            1051                       # number of overall (read+write) accesses
system.l2.overall_accesses::cpu2.data           49843                       # number of overall (read+write) accesses
system.l2.overall_accesses::cpu3.inst             719                       # number of overall (read+write) accesses
system.l2.overall_accesses::cpu3.data           49807                       # number of overall (read+write) accesses
system.l2.overall_accesses::total              244847                       # number of overall (read+write) accesses
system.l2.ReadReq_miss_rate::cpu0.inst       0.444426                       # miss rate for ReadReq accesses
system.l2.ReadReq_miss_rate::cpu0.data       0.984918                       # miss rate for ReadReq accesses
system.l2.ReadReq_miss_rate::cpu1.inst       0.371733                       # miss rate for ReadReq accesses
system.l2.ReadReq_miss_rate::cpu1.data       0.988007                       # miss rate for ReadReq accesses
system.l2.ReadReq_miss_rate::cpu2.inst       0.178877                       # miss rate for ReadReq accesses
system.l2.ReadReq_miss_rate::cpu2.data       0.992067                       # miss rate for ReadReq accesses
system.l2.ReadReq_miss_rate::cpu3.inst       0.141864                       # miss rate for ReadReq accesses
system.l2.ReadReq_miss_rate::cpu3.data       0.990619                       # miss rate for ReadReq accesses
system.l2.ReadReq_miss_rate::total           0.955316                       # miss rate for ReadReq accesses
system.l2.UpgradeReq_miss_rate::cpu0.data     0.555556                       # miss rate for UpgradeReq accesses
system.l2.UpgradeReq_miss_rate::cpu1.data     0.500000                       # miss rate for UpgradeReq accesses
system.l2.UpgradeReq_miss_rate::cpu2.data     0.600000                       # miss rate for UpgradeReq accesses
system.l2.UpgradeReq_miss_rate::total        0.529412                       # miss rate for UpgradeReq accesses
system.l2.SCUpgradeReq_miss_rate::cpu0.data     0.333333                       # miss rate for SCUpgradeReq accesses
system.l2.SCUpgradeReq_miss_rate::cpu3.data     0.250000                       # miss rate for SCUpgradeReq accesses
system.l2.SCUpgradeReq_miss_rate::total      0.250000                       # miss rate for SCUpgradeReq accesses
system.l2.ReadExReq_miss_rate::cpu0.data     0.998508                       # miss rate for ReadExReq accesses
system.l2.ReadExReq_miss_rate::cpu1.data     0.997341                       # miss rate for ReadExReq accesses
system.l2.ReadExReq_miss_rate::cpu2.data     0.997904                       # miss rate for ReadExReq accesses
system.l2.ReadExReq_miss_rate::cpu3.data     0.999516                       # miss rate for ReadExReq accesses
system.l2.ReadExReq_miss_rate::total         0.998396                       # miss rate for ReadExReq accesses
system.l2.demand_miss_rate::cpu0.inst        0.444426                       # miss rate for demand accesses
system.l2.demand_miss_rate::cpu0.data        0.992405                       # miss rate for demand accesses
system.l2.demand_miss_rate::cpu1.inst        0.371733                       # miss rate for demand accesses
system.l2.demand_miss_rate::cpu1.data        0.990323                       # miss rate for demand accesses
system.l2.demand_miss_rate::cpu2.inst        0.178877                       # miss rate for demand accesses
system.l2.demand_miss_rate::cpu2.data        0.993520                       # miss rate for demand accesses
system.l2.demand_miss_rate::cpu3.inst        0.141864                       # miss rate for demand accesses
system.l2.demand_miss_rate::cpu3.data        0.992832                       # miss rate for demand accesses
system.l2.demand_miss_rate::total            0.970234                       # miss rate for demand accesses
system.l2.overall_miss_rate::cpu0.inst       0.444426                       # miss rate for overall accesses
system.l2.overall_miss_rate::cpu0.data       0.992405                       # miss rate for overall accesses
system.l2.overall_miss_rate::cpu1.inst       0.371733                       # miss rate for overall accesses
system.l2.overall_miss_rate::cpu1.data       0.990323                       # miss rate for overall accesses
system.l2.overall_miss_rate::cpu2.inst       0.178877                       # miss rate for overall accesses
system.l2.overall_miss_rate::cpu2.data       0.993520                       # miss rate for overall accesses
system.l2.overall_miss_rate::cpu3.inst       0.141864                       # miss rate for overall accesses
system.l2.overall_miss_rate::cpu3.data       0.992832                       # miss rate for overall accesses
system.l2.overall_miss_rate::total           0.970234                       # miss rate for overall accesses
system.l2.ReadReq_avg_miss_latency::cpu0.inst 52040.434294                       # average ReadReq miss latency
system.l2.ReadReq_avg_miss_latency::cpu0.data 52763.808178                       # average ReadReq miss latency
system.l2.ReadReq_avg_miss_latency::cpu1.inst 52033.854167                       # average ReadReq miss latency
system.l2.ReadReq_avg_miss_latency::cpu1.data 52768.268066                       # average ReadReq miss latency
system.l2.ReadReq_avg_miss_latency::cpu2.inst 49792.553191                       # average ReadReq miss latency
system.l2.ReadReq_avg_miss_latency::cpu2.data 52779.946690                       # average ReadReq miss latency
system.l2.ReadReq_avg_miss_latency::cpu3.inst 50078.431373                       # average ReadReq miss latency
system.l2.ReadReq_avg_miss_latency::cpu3.data 52779.138787                       # average ReadReq miss latency
system.l2.ReadReq_avg_miss_latency::total 52752.614334                       # average ReadReq miss latency
system.l2.UpgradeReq_avg_miss_latency::cpu0.data        10400                       # average UpgradeReq miss latency
system.l2.UpgradeReq_avg_miss_latency::cpu1.data        52000                       # average UpgradeReq miss latency
system.l2.UpgradeReq_avg_miss_latency::cpu2.data 17666.666667                       # average UpgradeReq miss latency
system.l2.UpgradeReq_avg_miss_latency::total 17444.444444                       # average UpgradeReq miss latency
system.l2.ReadExReq_avg_miss_latency::cpu0.data 52822.753105                       # average ReadExReq miss latency
system.l2.ReadExReq_avg_miss_latency::cpu1.data 54413.266543                       # average ReadExReq miss latency
system.l2.ReadExReq_avg_miss_latency::cpu2.data 55127.150820                       # average ReadExReq miss latency
system.l2.ReadExReq_avg_miss_latency::cpu3.data 55270.870337                       # average ReadExReq miss latency
system.l2.ReadExReq_avg_miss_latency::total 53750.484336                       # average ReadExReq miss latency
system.l2.demand_avg_miss_latency::cpu0.inst 52040.434294                       # average overall miss latency
system.l2.demand_avg_miss_latency::cpu0.data 52796.481239                       # average overall miss latency
system.l2.demand_avg_miss_latency::cpu1.inst 52033.854167                       # average overall miss latency
system.l2.demand_avg_miss_latency::cpu1.data 53179.318420                       # average overall miss latency
system.l2.demand_avg_miss_latency::cpu2.inst 49792.553191                       # average overall miss latency
system.l2.demand_avg_miss_latency::cpu2.data 53366.700323                       # average overall miss latency
system.l2.demand_avg_miss_latency::cpu3.inst 50078.431373                       # average overall miss latency
system.l2.demand_avg_miss_latency::cpu3.data 53403.255814                       # average overall miss latency
system.l2.demand_avg_miss_latency::total 53108.196280                       # average overall miss latency
system.l2.overall_avg_miss_latency::cpu0.inst 52040.434294                       # average overall miss latency
system.l2.overall_avg_miss_latency::cpu0.data 52796.481239                       # average overall miss latency
system.l2.overall_avg_miss_latency::cpu1.inst 52033.854167                       # average overall miss latency
system.l2.overall_avg_miss_latency::cpu1.data 53179.318420                       # average overall miss latency
system.l2.overall_avg_miss_latency::cpu2.inst 49792.553191                       # average overall miss latency
system.l2.overall_avg_miss_latency::cpu2.data 53366.700323                       # average overall miss latency
system.l2.overall_avg_miss_latency::cpu3.inst 50078.431373                       # average overall miss latency
system.l2.overall_avg_miss_latency::cpu3.data 53403.255814                       # average overall miss latency
system.l2.overall_avg_miss_latency::total 53108.196280                       # average overall miss latency
system.l2.blocked_cycles::no_mshrs                  0                       # number of cycles access was blocked
system.l2.blocked_cycles::no_targets                0                       # number of cycles access was blocked
system.l2.blocked::no_mshrs                         0                       # number of cycles access was blocked
system.l2.blocked::no_targets                       0                       # number of cycles access was blocked
system.l2.avg_blocked_cycles::no_mshrs            nan                       # average number of cycles each access was blocked
system.l2.avg_blocked_cycles::no_targets          nan                       # average number of cycles each access was blocked
system.l2.fast_writes                               0                       # number of fast writes performed
system.l2.cache_copies                              0                       # number of cache copies performed
system.l2.writebacks::writebacks               114599                       # number of writebacks
system.l2.writebacks::total                    114599                       # number of writebacks
system.l2.ReadReq_mshr_hits::cpu0.inst             10                       # number of ReadReq MSHR hits
system.l2.ReadReq_mshr_hits::cpu0.data             13                       # number of ReadReq MSHR hits
system.l2.ReadReq_mshr_hits::cpu1.inst             17                       # number of ReadReq MSHR hits
system.l2.ReadReq_mshr_hits::cpu1.data             13                       # number of ReadReq MSHR hits
system.l2.ReadReq_mshr_hits::cpu2.inst             62                       # number of ReadReq MSHR hits
system.l2.ReadReq_mshr_hits::cpu2.data             29                       # number of ReadReq MSHR hits
system.l2.ReadReq_mshr_hits::cpu3.inst             21                       # number of ReadReq MSHR hits
system.l2.ReadReq_mshr_hits::cpu3.data             17                       # number of ReadReq MSHR hits
system.l2.ReadReq_mshr_hits::total                182                       # number of ReadReq MSHR hits
system.l2.demand_mshr_hits::cpu0.inst              10                       # number of demand (read+write) MSHR hits
system.l2.demand_mshr_hits::cpu0.data              13                       # number of demand (read+write) MSHR hits
system.l2.demand_mshr_hits::cpu1.inst              17                       # number of demand (read+write) MSHR hits
system.l2.demand_mshr_hits::cpu1.data              13                       # number of demand (read+write) MSHR hits
system.l2.demand_mshr_hits::cpu2.inst              62                       # number of demand (read+write) MSHR hits
system.l2.demand_mshr_hits::cpu2.data              29                       # number of demand (read+write) MSHR hits
system.l2.demand_mshr_hits::cpu3.inst              21                       # number of demand (read+write) MSHR hits
system.l2.demand_mshr_hits::cpu3.data              17                       # number of demand (read+write) MSHR hits
system.l2.demand_mshr_hits::total                 182                       # number of demand (read+write) MSHR hits
system.l2.overall_mshr_hits::cpu0.inst             10                       # number of overall MSHR hits
system.l2.overall_mshr_hits::cpu0.data             13                       # number of overall MSHR hits
system.l2.overall_mshr_hits::cpu1.inst             17                       # number of overall MSHR hits
system.l2.overall_mshr_hits::cpu1.data             13                       # number of overall MSHR hits
system.l2.overall_mshr_hits::cpu2.inst             62                       # number of overall MSHR hits
system.l2.overall_mshr_hits::cpu2.data             29                       # number of overall MSHR hits
system.l2.overall_mshr_hits::cpu3.inst             21                       # number of overall MSHR hits
system.l2.overall_mshr_hits::cpu3.data             17                       # number of overall MSHR hits
system.l2.overall_mshr_hits::total                182                       # number of overall MSHR hits
system.l2.ReadReq_mshr_misses::cpu0.inst         2661                       # number of ReadReq MSHR misses
system.l2.ReadReq_mshr_misses::cpu0.data        38189                       # number of ReadReq MSHR misses
system.l2.ReadReq_mshr_misses::cpu1.inst          367                       # number of ReadReq MSHR misses
system.l2.ReadReq_mshr_misses::cpu1.data        37142                       # number of ReadReq MSHR misses
system.l2.ReadReq_mshr_misses::cpu2.inst          126                       # number of ReadReq MSHR misses
system.l2.ReadReq_mshr_misses::cpu2.data        37112                       # number of ReadReq MSHR misses
system.l2.ReadReq_mshr_misses::cpu3.inst           81                       # number of ReadReq MSHR misses
system.l2.ReadReq_mshr_misses::cpu3.data        37047                       # number of ReadReq MSHR misses
system.l2.ReadReq_mshr_misses::total           152725                       # number of ReadReq MSHR misses
system.l2.UpgradeReq_mshr_misses::cpu0.data            5                       # number of UpgradeReq MSHR misses
system.l2.UpgradeReq_mshr_misses::cpu1.data            1                       # number of UpgradeReq MSHR misses
system.l2.UpgradeReq_mshr_misses::cpu2.data            3                       # number of UpgradeReq MSHR misses
system.l2.UpgradeReq_mshr_misses::total             9                       # number of UpgradeReq MSHR misses
system.l2.SCUpgradeReq_mshr_misses::cpu0.data            1                       # number of SCUpgradeReq MSHR misses
system.l2.SCUpgradeReq_mshr_misses::cpu3.data            1                       # number of SCUpgradeReq MSHR misses
system.l2.SCUpgradeReq_mshr_misses::total            2                       # number of SCUpgradeReq MSHR misses
system.l2.ReadExReq_mshr_misses::cpu0.data        47510                       # number of ReadExReq MSHR misses
system.l2.ReadExReq_mshr_misses::cpu1.data        12377                       # number of ReadExReq MSHR misses
system.l2.ReadExReq_mshr_misses::cpu2.data        12379                       # number of ReadExReq MSHR misses
system.l2.ReadExReq_mshr_misses::cpu3.data        12386                       # number of ReadExReq MSHR misses
system.l2.ReadExReq_mshr_misses::total          84652                       # number of ReadExReq MSHR misses
system.l2.demand_mshr_misses::cpu0.inst          2661                       # number of demand (read+write) MSHR misses
system.l2.demand_mshr_misses::cpu0.data         85699                       # number of demand (read+write) MSHR misses
system.l2.demand_mshr_misses::cpu1.inst           367                       # number of demand (read+write) MSHR misses
system.l2.demand_mshr_misses::cpu1.data         49519                       # number of demand (read+write) MSHR misses
system.l2.demand_mshr_misses::cpu2.inst           126                       # number of demand (read+write) MSHR misses
system.l2.demand_mshr_misses::cpu2.data         49491                       # number of demand (read+write) MSHR misses
system.l2.demand_mshr_misses::cpu3.inst            81                       # number of demand (read+write) MSHR misses
system.l2.demand_mshr_misses::cpu3.data         49433                       # number of demand (read+write) MSHR misses
system.l2.demand_mshr_misses::total            237377                       # number of demand (read+write) MSHR misses
system.l2.overall_mshr_misses::cpu0.inst         2661                       # number of overall MSHR misses
system.l2.overall_mshr_misses::cpu0.data        85699                       # number of overall MSHR misses
system.l2.overall_mshr_misses::cpu1.inst          367                       # number of overall MSHR misses
system.l2.overall_mshr_misses::cpu1.data        49519                       # number of overall MSHR misses
system.l2.overall_mshr_misses::cpu2.inst          126                       # number of overall MSHR misses
system.l2.overall_mshr_misses::cpu2.data        49491                       # number of overall MSHR misses
system.l2.overall_mshr_misses::cpu3.inst           81                       # number of overall MSHR misses
system.l2.overall_mshr_misses::cpu3.data        49433                       # number of overall MSHR misses
system.l2.overall_mshr_misses::total           237377                       # number of overall MSHR misses
system.l2.ReadReq_mshr_miss_latency::cpu0.inst    106611000                       # number of ReadReq MSHR miss cycles
system.l2.ReadReq_mshr_miss_latency::cpu0.data   1556877000                       # number of ReadReq MSHR miss cycles
system.l2.ReadReq_mshr_miss_latency::cpu1.inst     14790000                       # number of ReadReq MSHR miss cycles
system.l2.ReadReq_mshr_miss_latency::cpu1.data   1514371000                       # number of ReadReq MSHR miss cycles
system.l2.ReadReq_mshr_miss_latency::cpu2.inst      5088000                       # number of ReadReq MSHR miss cycles
system.l2.ReadReq_mshr_miss_latency::cpu2.data   1513688000                       # number of ReadReq MSHR miss cycles
system.l2.ReadReq_mshr_miss_latency::cpu3.inst      3281000                       # number of ReadReq MSHR miss cycles
system.l2.ReadReq_mshr_miss_latency::cpu3.data   1510872000                       # number of ReadReq MSHR miss cycles
system.l2.ReadReq_mshr_miss_latency::total   6225578000                       # number of ReadReq MSHR miss cycles
system.l2.UpgradeReq_mshr_miss_latency::cpu0.data       200000                       # number of UpgradeReq MSHR miss cycles
system.l2.UpgradeReq_mshr_miss_latency::cpu1.data        40000                       # number of UpgradeReq MSHR miss cycles
system.l2.UpgradeReq_mshr_miss_latency::cpu2.data       121000                       # number of UpgradeReq MSHR miss cycles
system.l2.UpgradeReq_mshr_miss_latency::total       361000                       # number of UpgradeReq MSHR miss cycles
system.l2.SCUpgradeReq_mshr_miss_latency::cpu0.data        40000                       # number of SCUpgradeReq MSHR miss cycles
system.l2.SCUpgradeReq_mshr_miss_latency::cpu3.data        40000                       # number of SCUpgradeReq MSHR miss cycles
system.l2.SCUpgradeReq_mshr_miss_latency::total        80000                       # number of SCUpgradeReq MSHR miss cycles
system.l2.ReadExReq_mshr_miss_latency::cpu0.data   1939489000                       # number of ReadExReq MSHR miss cycles
system.l2.ReadExReq_mshr_miss_latency::cpu1.data    524949000                       # number of ReadExReq MSHR miss cycles
system.l2.ReadExReq_mshr_miss_latency::cpu2.data    533871000                       # number of ReadExReq MSHR miss cycles
system.l2.ReadExReq_mshr_miss_latency::cpu3.data    535953000                       # number of ReadExReq MSHR miss cycles
system.l2.ReadExReq_mshr_miss_latency::total   3534262000                       # number of ReadExReq MSHR miss cycles
system.l2.demand_mshr_miss_latency::cpu0.inst    106611000                       # number of demand (read+write) MSHR miss cycles
system.l2.demand_mshr_miss_latency::cpu0.data   3496366000                       # number of demand (read+write) MSHR miss cycles
system.l2.demand_mshr_miss_latency::cpu1.inst     14790000                       # number of demand (read+write) MSHR miss cycles
system.l2.demand_mshr_miss_latency::cpu1.data   2039320000                       # number of demand (read+write) MSHR miss cycles
system.l2.demand_mshr_miss_latency::cpu2.inst      5088000                       # number of demand (read+write) MSHR miss cycles
system.l2.demand_mshr_miss_latency::cpu2.data   2047559000                       # number of demand (read+write) MSHR miss cycles
system.l2.demand_mshr_miss_latency::cpu3.inst      3281000                       # number of demand (read+write) MSHR miss cycles
system.l2.demand_mshr_miss_latency::cpu3.data   2046825000                       # number of demand (read+write) MSHR miss cycles
system.l2.demand_mshr_miss_latency::total   9759840000                       # number of demand (read+write) MSHR miss cycles
system.l2.overall_mshr_miss_latency::cpu0.inst    106611000                       # number of overall MSHR miss cycles
system.l2.overall_mshr_miss_latency::cpu0.data   3496366000                       # number of overall MSHR miss cycles
system.l2.overall_mshr_miss_latency::cpu1.inst     14790000                       # number of overall MSHR miss cycles
system.l2.overall_mshr_miss_latency::cpu1.data   2039320000                       # number of overall MSHR miss cycles
system.l2.overall_mshr_miss_latency::cpu2.inst      5088000                       # number of overall MSHR miss cycles
system.l2.overall_mshr_miss_latency::cpu2.data   2047559000                       # number of overall MSHR miss cycles
system.l2.overall_mshr_miss_latency::cpu3.inst      3281000                       # number of overall MSHR miss cycles
system.l2.overall_mshr_miss_latency::cpu3.data   2046825000                       # number of overall MSHR miss cycles
system.l2.overall_mshr_miss_latency::total   9759840000                       # number of overall MSHR miss cycles
system.l2.ReadReq_mshr_miss_rate::cpu0.inst     0.442762                       # mshr miss rate for ReadReq accesses
system.l2.ReadReq_mshr_miss_rate::cpu0.data     0.984582                       # mshr miss rate for ReadReq accesses
system.l2.ReadReq_mshr_miss_rate::cpu1.inst     0.355276                       # mshr miss rate for ReadReq accesses
system.l2.ReadReq_mshr_miss_rate::cpu1.data     0.987662                       # mshr miss rate for ReadReq accesses
system.l2.ReadReq_mshr_miss_rate::cpu2.inst     0.119886                       # mshr miss rate for ReadReq accesses
system.l2.ReadReq_mshr_miss_rate::cpu2.data     0.991292                       # mshr miss rate for ReadReq accesses
system.l2.ReadReq_mshr_miss_rate::cpu3.inst     0.112656                       # mshr miss rate for ReadReq accesses
system.l2.ReadReq_mshr_miss_rate::cpu3.data     0.990164                       # mshr miss rate for ReadReq accesses
system.l2.ReadReq_mshr_miss_rate::total      0.954179                       # mshr miss rate for ReadReq accesses
system.l2.UpgradeReq_mshr_miss_rate::cpu0.data     0.555556                       # mshr miss rate for UpgradeReq accesses
system.l2.UpgradeReq_mshr_miss_rate::cpu1.data     0.500000                       # mshr miss rate for UpgradeReq accesses
system.l2.UpgradeReq_mshr_miss_rate::cpu2.data     0.600000                       # mshr miss rate for UpgradeReq accesses
system.l2.UpgradeReq_mshr_miss_rate::total     0.529412                       # mshr miss rate for UpgradeReq accesses
system.l2.SCUpgradeReq_mshr_miss_rate::cpu0.data     0.333333                       # mshr miss rate for SCUpgradeReq accesses
system.l2.SCUpgradeReq_mshr_miss_rate::cpu3.data     0.250000                       # mshr miss rate for SCUpgradeReq accesses
system.l2.SCUpgradeReq_mshr_miss_rate::total     0.250000                       # mshr miss rate for SCUpgradeReq accesses
system.l2.ReadExReq_mshr_miss_rate::cpu0.data     0.998508                       # mshr miss rate for ReadExReq accesses
system.l2.ReadExReq_mshr_miss_rate::cpu1.data     0.997341                       # mshr miss rate for ReadExReq accesses
system.l2.ReadExReq_mshr_miss_rate::cpu2.data     0.997904                       # mshr miss rate for ReadExReq accesses
system.l2.ReadExReq_mshr_miss_rate::cpu3.data     0.999516                       # mshr miss rate for ReadExReq accesses
system.l2.ReadExReq_mshr_miss_rate::total     0.998396                       # mshr miss rate for ReadExReq accesses
system.l2.demand_mshr_miss_rate::cpu0.inst     0.442762                       # mshr miss rate for demand accesses
system.l2.demand_mshr_miss_rate::cpu0.data     0.992254                       # mshr miss rate for demand accesses
system.l2.demand_mshr_miss_rate::cpu1.inst     0.355276                       # mshr miss rate for demand accesses
system.l2.demand_mshr_miss_rate::cpu1.data     0.990063                       # mshr miss rate for demand accesses
system.l2.demand_mshr_miss_rate::cpu2.inst     0.119886                       # mshr miss rate for demand accesses
system.l2.demand_mshr_miss_rate::cpu2.data     0.992938                       # mshr miss rate for demand accesses
system.l2.demand_mshr_miss_rate::cpu3.inst     0.112656                       # mshr miss rate for demand accesses
system.l2.demand_mshr_miss_rate::cpu3.data     0.992491                       # mshr miss rate for demand accesses
system.l2.demand_mshr_miss_rate::total       0.969491                       # mshr miss rate for demand accesses
system.l2.overall_mshr_miss_rate::cpu0.inst     0.442762                       # mshr miss rate for overall accesses
system.l2.overall_mshr_miss_rate::cpu0.data     0.992254                       # mshr miss rate for overall accesses
system.l2.overall_mshr_miss_rate::cpu1.inst     0.355276                       # mshr miss rate for overall accesses
system.l2.overall_mshr_miss_rate::cpu1.data     0.990063                       # mshr miss rate for overall accesses
system.l2.overall_mshr_miss_rate::cpu2.inst     0.119886                       # mshr miss rate for overall accesses
system.l2.overall_mshr_miss_rate::cpu2.data     0.992938                       # mshr miss rate for overall accesses
system.l2.overall_mshr_miss_rate::cpu3.inst     0.112656                       # mshr miss rate for overall accesses
system.l2.overall_mshr_miss_rate::cpu3.data     0.992491                       # mshr miss rate for overall accesses
system.l2.overall_mshr_miss_rate::total      0.969491                       # mshr miss rate for overall accesses
system.l2.ReadReq_avg_mshr_miss_latency::cpu0.inst 40064.261556                       # average ReadReq mshr miss latency
system.l2.ReadReq_avg_mshr_miss_latency::cpu0.data 40767.681793                       # average ReadReq mshr miss latency
system.l2.ReadReq_avg_mshr_miss_latency::cpu1.inst 40299.727520                       # average ReadReq mshr miss latency
system.l2.ReadReq_avg_mshr_miss_latency::cpu1.data 40772.467826                       # average ReadReq mshr miss latency
system.l2.ReadReq_avg_mshr_miss_latency::cpu2.inst 40380.952381                       # average ReadReq mshr miss latency
system.l2.ReadReq_avg_mshr_miss_latency::cpu2.data 40787.023065                       # average ReadReq mshr miss latency
system.l2.ReadReq_avg_mshr_miss_latency::cpu3.inst 40506.172840                       # average ReadReq mshr miss latency
system.l2.ReadReq_avg_mshr_miss_latency::cpu3.data 40782.573488                       # average ReadReq mshr miss latency
system.l2.ReadReq_avg_mshr_miss_latency::total 40763.319692                       # average ReadReq mshr miss latency
system.l2.UpgradeReq_avg_mshr_miss_latency::cpu0.data        40000                       # average UpgradeReq mshr miss latency
system.l2.UpgradeReq_avg_mshr_miss_latency::cpu1.data        40000                       # average UpgradeReq mshr miss latency
system.l2.UpgradeReq_avg_mshr_miss_latency::cpu2.data 40333.333333                       # average UpgradeReq mshr miss latency
system.l2.UpgradeReq_avg_mshr_miss_latency::total 40111.111111                       # average UpgradeReq mshr miss latency
system.l2.SCUpgradeReq_avg_mshr_miss_latency::cpu0.data        40000                       # average SCUpgradeReq mshr miss latency
system.l2.SCUpgradeReq_avg_mshr_miss_latency::cpu3.data        40000                       # average SCUpgradeReq mshr miss latency
system.l2.SCUpgradeReq_avg_mshr_miss_latency::total        40000                       # average SCUpgradeReq mshr miss latency
system.l2.ReadExReq_avg_mshr_miss_latency::cpu0.data 40822.753105                       # average ReadExReq mshr miss latency
system.l2.ReadExReq_avg_mshr_miss_latency::cpu1.data 42413.266543                       # average ReadExReq mshr miss latency
system.l2.ReadExReq_avg_mshr_miss_latency::cpu2.data 43127.150820                       # average ReadExReq mshr miss latency
system.l2.ReadExReq_avg_mshr_miss_latency::cpu3.data 43270.870337                       # average ReadExReq mshr miss latency
system.l2.ReadExReq_avg_mshr_miss_latency::total 41750.484336                       # average ReadExReq mshr miss latency
system.l2.demand_avg_mshr_miss_latency::cpu0.inst 40064.261556                       # average overall mshr miss latency
system.l2.demand_avg_mshr_miss_latency::cpu0.data 40798.212348                       # average overall mshr miss latency
system.l2.demand_avg_mshr_miss_latency::cpu1.inst 40299.727520                       # average overall mshr miss latency
system.l2.demand_avg_mshr_miss_latency::cpu1.data 41182.576385                       # average overall mshr miss latency
system.l2.demand_avg_mshr_miss_latency::cpu2.inst 40380.952381                       # average overall mshr miss latency
system.l2.demand_avg_mshr_miss_latency::cpu2.data 41372.350528                       # average overall mshr miss latency
system.l2.demand_avg_mshr_miss_latency::cpu3.inst 40506.172840                       # average overall mshr miss latency
system.l2.demand_avg_mshr_miss_latency::cpu3.data 41406.044545                       # average overall mshr miss latency
system.l2.demand_avg_mshr_miss_latency::total 41115.356585                       # average overall mshr miss latency
system.l2.overall_avg_mshr_miss_latency::cpu0.inst 40064.261556                       # average overall mshr miss latency
system.l2.overall_avg_mshr_miss_latency::cpu0.data 40798.212348                       # average overall mshr miss latency
system.l2.overall_avg_mshr_miss_latency::cpu1.inst 40299.727520                       # average overall mshr miss latency
system.l2.overall_avg_mshr_miss_latency::cpu1.data 41182.576385                       # average overall mshr miss latency
system.l2.overall_avg_mshr_miss_latency::cpu2.inst 40380.952381                       # average overall mshr miss latency
system.l2.overall_avg_mshr_miss_latency::cpu2.data 41372.350528                       # average overall mshr miss latency
system.l2.overall_avg_mshr_miss_latency::cpu3.inst 40506.172840                       # average overall mshr miss latency
system.l2.overall_avg_mshr_miss_latency::cpu3.data 41406.044545                       # average overall mshr miss latency
system.l2.overall_avg_mshr_miss_latency::total 41115.356585                       # average overall mshr miss latency
system.l2.no_allocate_misses                        0                       # Number of misses that were no-allocate
system.cpu0.dtb.fetch_hits                          0                       # ITB hits
system.cpu0.dtb.fetch_misses                        0                       # ITB misses
system.cpu0.dtb.fetch_acv                           0                       # ITB acv
system.cpu0.dtb.fetch_accesses                      0                       # ITB accesses
system.cpu0.dtb.read_hits                     7323538                       # DTB read hits
system.cpu0.dtb.read_misses                      7225                       # DTB read misses
system.cpu0.dtb.read_acv                            0                       # DTB read access violations
system.cpu0.dtb.read_accesses                 7330763                       # DTB read accesses
system.cpu0.dtb.write_hits                    3529602                       # DTB write hits
system.cpu0.dtb.write_misses                     4154                       # DTB write misses
system.cpu0.dtb.write_acv                           0                       # DTB write access violations
system.cpu0.dtb.write_accesses                3533756                       # DTB write accesses
system.cpu0.dtb.data_hits                    10853140                       # DTB hits
system.cpu0.dtb.data_misses                     11379                       # DTB misses
system.cpu0.dtb.data_acv                            0                       # DTB access violations
system.cpu0.dtb.data_accesses                10864519                       # DTB accesses
system.cpu0.itb.fetch_hits                    4738140                       # ITB hits
system.cpu0.itb.fetch_misses                      197                       # ITB misses
system.cpu0.itb.fetch_acv                           0                       # ITB acv
system.cpu0.itb.fetch_accesses                4738337                       # ITB accesses
system.cpu0.itb.read_hits                           0                       # DTB read hits
system.cpu0.itb.read_misses                         0                       # DTB read misses
system.cpu0.itb.read_acv                            0                       # DTB read access violations
system.cpu0.itb.read_accesses                       0                       # DTB read accesses
system.cpu0.itb.write_hits                          0                       # DTB write hits
system.cpu0.itb.write_misses                        0                       # DTB write misses
system.cpu0.itb.write_acv                           0                       # DTB write access violations
system.cpu0.itb.write_accesses                      0                       # DTB write accesses
system.cpu0.itb.data_hits                           0                       # DTB hits
system.cpu0.itb.data_misses                         0                       # DTB misses
system.cpu0.itb.data_acv                            0                       # DTB access violations
system.cpu0.itb.data_accesses                       0                       # DTB accesses
system.cpu0.numCycles                        20362725                       # number of cpu cycles simulated
system.cpu0.numWorkItemsStarted                     0                       # number of work items this cpu started
system.cpu0.numWorkItemsCompleted                   0                       # number of work items this cpu completed
system.cpu0.BPredUnit.lookups                 3229139                       # Number of BP lookups
system.cpu0.BPredUnit.condPredicted           1498454                       # Number of conditional branches predicted
system.cpu0.BPredUnit.condIncorrect             14647                       # Number of conditional branches incorrect
system.cpu0.BPredUnit.BTBLookups              2097443                       # Number of BTB lookups
system.cpu0.BPredUnit.BTBHits                 1868177                       # Number of BTB hits
system.cpu0.BPredUnit.BTBCorrect                    0                       # Number of correct BTB predictions (this stat may not work properly.
system.cpu0.BPredUnit.usedRAS                  862121                       # Number of times the RAS was used to get a target.
system.cpu0.BPredUnit.RASInCorrect                608                       # Number of incorrect RAS predictions.
system.cpu0.fetch.icacheStallCycles             96782                       # Number of cycles fetch is stalled on an Icache miss
system.cpu0.fetch.Insts                      41666458                       # Number of instructions fetch has processed
system.cpu0.fetch.Branches                    3229139                       # Number of branches that fetch encountered
system.cpu0.fetch.predictedBranches           2730298                       # Number of branches that fetch has predicted taken
system.cpu0.fetch.Cycles                      6889624                       # Number of cycles fetch has run and was not squashing or blocked
system.cpu0.fetch.SquashCycles                  67152                       # Number of cycles fetch has spent squashing
system.cpu0.fetch.BlockedCycles              13023565                       # Number of cycles fetch has spent blocked
system.cpu0.fetch.MiscStallCycles                  96                       # Number of cycles fetch has spent waiting on interrupts, or bad addresses, or out of MSHRs
system.cpu0.fetch.PendingTrapStallCycles         3350                       # Number of stall cycles due to pending traps
system.cpu0.fetch.CacheLines                  4738140                       # Number of cache lines fetched
system.cpu0.fetch.IcacheSquashes                 2966                       # Number of outstanding Icache misses that were squashed
system.cpu0.fetch.rateDist::samples          20062482                       # Number of instructions fetched each cycle (Total)
system.cpu0.fetch.rateDist::mean             2.076835                       # Number of instructions fetched each cycle (Total)
system.cpu0.fetch.rateDist::stdev            3.166318                       # Number of instructions fetched each cycle (Total)
system.cpu0.fetch.rateDist::underflows              0      0.00%      0.00% # Number of instructions fetched each cycle (Total)
system.cpu0.fetch.rateDist::0                13172858     65.66%     65.66% # Number of instructions fetched each cycle (Total)
system.cpu0.fetch.rateDist::1                  385408      1.92%     67.58% # Number of instructions fetched each cycle (Total)
system.cpu0.fetch.rateDist::2                  289505      1.44%     69.02% # Number of instructions fetched each cycle (Total)
system.cpu0.fetch.rateDist::3                  240344      1.20%     70.22% # Number of instructions fetched each cycle (Total)
system.cpu0.fetch.rateDist::4                 1262055      6.29%     76.51% # Number of instructions fetched each cycle (Total)
system.cpu0.fetch.rateDist::5                  421153      2.10%     78.61% # Number of instructions fetched each cycle (Total)
system.cpu0.fetch.rateDist::6                  571767      2.85%     81.46% # Number of instructions fetched each cycle (Total)
system.cpu0.fetch.rateDist::7                  358715      1.79%     83.25% # Number of instructions fetched each cycle (Total)
system.cpu0.fetch.rateDist::8                 3360677     16.75%    100.00% # Number of instructions fetched each cycle (Total)
system.cpu0.fetch.rateDist::overflows               0      0.00%    100.00% # Number of instructions fetched each cycle (Total)
system.cpu0.fetch.rateDist::min_value               0                       # Number of instructions fetched each cycle (Total)
system.cpu0.fetch.rateDist::max_value               8                       # Number of instructions fetched each cycle (Total)
system.cpu0.fetch.rateDist::total            20062482                       # Number of instructions fetched each cycle (Total)
system.cpu0.fetch.branchRate                 0.158581                       # Number of branch fetches per cycle
system.cpu0.fetch.rate                       2.046212                       # Number of inst fetches per cycle
system.cpu0.decode.IdleCycles                 1614423                       # Number of cycles decode is idle
system.cpu0.decode.BlockedCycles             11523807                       # Number of cycles decode is blocked
system.cpu0.decode.RunCycles                  5389625                       # Number of cycles decode is running
system.cpu0.decode.UnblockCycles              1486982                       # Number of cycles decode is unblocking
system.cpu0.decode.SquashCycles                 47645                       # Number of cycles decode is squashing
system.cpu0.decode.BranchResolved              734711                       # Number of times decode resolved a branch
system.cpu0.decode.BranchMispred                 1451                       # Number of times decode detected a branch misprediction
system.cpu0.decode.DecodedInsts              41583495                       # Number of instructions handled by decode
system.cpu0.decode.SquashedInsts                 5945                       # Number of squashed instructions handled by decode
system.cpu0.rename.SquashCycles                 47645                       # Number of cycles rename is squashing
system.cpu0.rename.IdleCycles                 2721527                       # Number of cycles rename is idle
system.cpu0.rename.BlockCycles                5175306                       # Number of cycles rename is blocking
system.cpu0.rename.serializeStallCycles       2561309                       # count of cycles rename stalled for serializing inst
system.cpu0.rename.RunCycles                  5754298                       # Number of cycles rename is running
system.cpu0.rename.UnblockCycles              3802397                       # Number of cycles rename is unblocking
system.cpu0.rename.RenamedInsts              41502261                       # Number of instructions processed by rename
system.cpu0.rename.IQFullEvents                 49267                       # Number of times rename has blocked due to IQ full
system.cpu0.rename.LSQFullEvents               485637                       # Number of times rename has blocked due to LSQ full
system.cpu0.rename.FullRegisterEvents         2665829                       # Number of times there has been no free registers
system.cpu0.rename.RenamedOperands           32600397                       # Number of destination operands rename has renamed
system.cpu0.rename.RenameLookups             55343858                       # Number of register rename lookups that rename has made
system.cpu0.rename.int_rename_lookups        37644533                       # Number of integer rename lookups
system.cpu0.rename.fp_rename_lookups         17699325                       # Number of floating rename lookups
system.cpu0.rename.CommittedMaps             32287521                       # Number of HB maps that are committed
system.cpu0.rename.UndoneMaps                  312876                       # Number of HB maps that are undone due to squashing
system.cpu0.rename.serializingInsts            132229                       # count of serializing insts renamed
system.cpu0.rename.tempSerializingInsts           802                       # count of temporary serializing insts renamed
system.cpu0.rename.skidInsts                 12360532                       # count of insts added to the skid buffer
system.cpu0.memDep0.insertedLoads             7358741                       # Number of loads inserted to the mem dependence unit.
system.cpu0.memDep0.insertedStores            3565183                       # Number of stores inserted to the mem dependence unit.
system.cpu0.memDep0.conflictingLoads          1415977                       # Number of conflicting loads.
system.cpu0.memDep0.conflictingStores          133974                       # Number of conflicting stores.
system.cpu0.iq.iqInstsAdded                  38682946                       # Number of instructions added to the IQ (excludes non-spec)
system.cpu0.iq.iqNonSpecInstsAdded               1311                       # Number of non-speculative instructions added to the IQ
system.cpu0.iq.iqInstsIssued                 38567542                       # Number of instructions issued
system.cpu0.iq.iqSquashedInstsIssued            22002                       # Number of squashed instructions issued
system.cpu0.iq.iqSquashedInstsExamined         320494                       # Number of squashed instructions iterated over during squash; mainly for profiling
system.cpu0.iq.iqSquashedOperandsExamined       228419                       # Number of squashed operands that are examined and possibly removed from graph
system.cpu0.iq.iqSquashedNonSpecRemoved           161                       # Number of squashed non-spec instructions that were removed
system.cpu0.iq.issued_per_cycle::samples     20062482                       # Number of insts issued each cycle
system.cpu0.iq.issued_per_cycle::mean        1.922371                       # Number of insts issued each cycle
system.cpu0.iq.issued_per_cycle::stdev       1.752317                       # Number of insts issued each cycle
system.cpu0.iq.issued_per_cycle::underflows            0      0.00%      0.00% # Number of insts issued each cycle
system.cpu0.iq.issued_per_cycle::0            5577594     27.80%     27.80% # Number of insts issued each cycle
system.cpu0.iq.issued_per_cycle::1            3797545     18.93%     46.73% # Number of insts issued each cycle
system.cpu0.iq.issued_per_cycle::2            4048395     20.18%     66.91% # Number of insts issued each cycle
system.cpu0.iq.issued_per_cycle::3            2678970     13.35%     80.26% # Number of insts issued each cycle
system.cpu0.iq.issued_per_cycle::4            2294996     11.44%     91.70% # Number of insts issued each cycle
system.cpu0.iq.issued_per_cycle::5             906703      4.52%     96.22% # Number of insts issued each cycle
system.cpu0.iq.issued_per_cycle::6             438798      2.19%     98.41% # Number of insts issued each cycle
system.cpu0.iq.issued_per_cycle::7             265838      1.33%     99.73% # Number of insts issued each cycle
system.cpu0.iq.issued_per_cycle::8              53643      0.27%    100.00% # Number of insts issued each cycle
system.cpu0.iq.issued_per_cycle::overflows            0      0.00%    100.00% # Number of insts issued each cycle
system.cpu0.iq.issued_per_cycle::min_value            0                       # Number of insts issued each cycle
system.cpu0.iq.issued_per_cycle::max_value            8                       # Number of insts issued each cycle
system.cpu0.iq.issued_per_cycle::total       20062482                       # Number of insts issued each cycle
system.cpu0.iq.fu_full::No_OpClass                  0      0.00%      0.00% # attempts to use FU when none available
system.cpu0.iq.fu_full::IntAlu                  20574      2.56%      2.56% # attempts to use FU when none available
system.cpu0.iq.fu_full::IntMult                262140     32.58%     35.13% # attempts to use FU when none available
system.cpu0.iq.fu_full::IntDiv                      0      0.00%     35.13% # attempts to use FU when none available
system.cpu0.iq.fu_full::FloatAdd                 4448      0.55%     35.69% # attempts to use FU when none available
system.cpu0.iq.fu_full::FloatCmp                    0      0.00%     35.69% # attempts to use FU when none available
system.cpu0.iq.fu_full::FloatCvt                    0      0.00%     35.69% # attempts to use FU when none available
system.cpu0.iq.fu_full::FloatMult              339522     42.19%     77.88% # attempts to use FU when none available
system.cpu0.iq.fu_full::FloatDiv                    0      0.00%     77.88% # attempts to use FU when none available
system.cpu0.iq.fu_full::FloatSqrt                   0      0.00%     77.88% # attempts to use FU when none available
system.cpu0.iq.fu_full::SimdAdd                     0      0.00%     77.88% # attempts to use FU when none available
system.cpu0.iq.fu_full::SimdAddAcc                  0      0.00%     77.88% # attempts to use FU when none available
system.cpu0.iq.fu_full::SimdAlu                     0      0.00%     77.88% # attempts to use FU when none available
system.cpu0.iq.fu_full::SimdCmp                     0      0.00%     77.88% # attempts to use FU when none available
system.cpu0.iq.fu_full::SimdCvt                     0      0.00%     77.88% # attempts to use FU when none available
system.cpu0.iq.fu_full::SimdMisc                    0      0.00%     77.88% # attempts to use FU when none available
system.cpu0.iq.fu_full::SimdMult                    0      0.00%     77.88% # attempts to use FU when none available
system.cpu0.iq.fu_full::SimdMultAcc                 0      0.00%     77.88% # attempts to use FU when none available
system.cpu0.iq.fu_full::SimdShift                   0      0.00%     77.88% # attempts to use FU when none available
system.cpu0.iq.fu_full::SimdShiftAcc                0      0.00%     77.88% # attempts to use FU when none available
system.cpu0.iq.fu_full::SimdSqrt                    0      0.00%     77.88% # attempts to use FU when none available
system.cpu0.iq.fu_full::SimdFloatAdd                0      0.00%     77.88% # attempts to use FU when none available
system.cpu0.iq.fu_full::SimdFloatAlu                0      0.00%     77.88% # attempts to use FU when none available
system.cpu0.iq.fu_full::SimdFloatCmp                0      0.00%     77.88% # attempts to use FU when none available
system.cpu0.iq.fu_full::SimdFloatCvt                0      0.00%     77.88% # attempts to use FU when none available
system.cpu0.iq.fu_full::SimdFloatDiv                0      0.00%     77.88% # attempts to use FU when none available
system.cpu0.iq.fu_full::SimdFloatMisc               0      0.00%     77.88% # attempts to use FU when none available
system.cpu0.iq.fu_full::SimdFloatMult               0      0.00%     77.88% # attempts to use FU when none available
system.cpu0.iq.fu_full::SimdFloatMultAcc            0      0.00%     77.88% # attempts to use FU when none available
system.cpu0.iq.fu_full::SimdFloatSqrt               0      0.00%     77.88% # attempts to use FU when none available
system.cpu0.iq.fu_full::MemRead                 97589     12.13%     90.01% # attempts to use FU when none available
system.cpu0.iq.fu_full::MemWrite                80397      9.99%    100.00% # attempts to use FU when none available
system.cpu0.iq.fu_full::IprAccess                   0      0.00%    100.00% # attempts to use FU when none available
system.cpu0.iq.fu_full::InstPrefetch                0      0.00%    100.00% # attempts to use FU when none available
system.cpu0.iq.FU_type_0::No_OpClass                0      0.00%      0.00% # Type of FU issued
system.cpu0.iq.FU_type_0::IntAlu             20829968     54.01%     54.01% # Type of FU issued
system.cpu0.iq.FU_type_0::IntMult              787016      2.04%     56.05% # Type of FU issued
system.cpu0.iq.FU_type_0::IntDiv                    0      0.00%     56.05% # Type of FU issued
system.cpu0.iq.FU_type_0::FloatAdd            3046697      7.90%     63.95% # Type of FU issued
system.cpu0.iq.FU_type_0::FloatCmp                 13      0.00%     63.95% # Type of FU issued
system.cpu0.iq.FU_type_0::FloatCvt                  0      0.00%     63.95% # Type of FU issued
system.cpu0.iq.FU_type_0::FloatMult           3026346      7.85%     71.80% # Type of FU issued
system.cpu0.iq.FU_type_0::FloatDiv                 72      0.00%     71.80% # Type of FU issued
system.cpu0.iq.FU_type_0::FloatSqrt                 0      0.00%     71.80% # Type of FU issued
system.cpu0.iq.FU_type_0::SimdAdd                   0      0.00%     71.80% # Type of FU issued
system.cpu0.iq.FU_type_0::SimdAddAcc                0      0.00%     71.80% # Type of FU issued
system.cpu0.iq.FU_type_0::SimdAlu                   0      0.00%     71.80% # Type of FU issued
[...]
system.cpu3.icache.overall_mshr_miss_latency::total     12647000                       # number of overall MSHR miss cycles
system.cpu3.icache.ReadReq_mshr_miss_rate::cpu3.inst     0.001074                       # mshr miss rate for ReadReq accesses
system.cpu3.icache.ReadReq_mshr_miss_rate::total     0.001074                       # mshr miss rate for ReadReq accesses
system.cpu3.icache.demand_mshr_miss_rate::cpu3.inst     0.001074                       # mshr miss rate for demand accesses
system.cpu3.icache.demand_mshr_miss_rate::total     0.001074                       # mshr miss rate for demand accesses
system.cpu3.icache.overall_mshr_miss_rate::cpu3.inst     0.001074                       # mshr miss rate for overall accesses
system.cpu3.icache.overall_mshr_miss_rate::total     0.001074                       # mshr miss rate for overall accesses
system.cpu3.icache.ReadReq_avg_mshr_miss_latency::cpu3.inst 17589.707928                       # average ReadReq mshr miss latency
system.cpu3.icache.ReadReq_avg_mshr_miss_latency::total 17589.707928                       # average ReadReq mshr miss latency
system.cpu3.icache.demand_avg_mshr_miss_latency::cpu3.inst 17589.707928                       # average overall mshr miss latency
system.cpu3.icache.demand_avg_mshr_miss_latency::total 17589.707928                       # average overall mshr miss latency
system.cpu3.icache.overall_avg_mshr_miss_latency::cpu3.inst 17589.707928                       # average overall mshr miss latency
system.cpu3.icache.overall_avg_mshr_miss_latency::total 17589.707928                       # average overall mshr miss latency
system.cpu3.icache.no_allocate_misses               0                       # Number of misses that were no-allocate
system.cpu3.dcache.replacements                 49331                       # number of replacements
system.cpu3.dcache.tagsinuse                95.461760                       # Cycle average of tags in use
system.cpu3.dcache.total_refs                 1652578                       # Total number of references to valid blocks.
system.cpu3.dcache.sampled_refs                 49836                       # Sample count of references to valid blocks.
system.cpu3.dcache.avg_refs                 33.160326                       # Average number of references to valid blocks.
system.cpu3.dcache.warmup_cycle           16620235000                       # Cycle when the warmup percentage was hit.
system.cpu3.dcache.occ_blocks::cpu3.data    95.461760                       # Average occupied blocks per requestor
system.cpu3.dcache.occ_percent::cpu3.data     0.186449                       # Average percentage of cache occupancy
system.cpu3.dcache.occ_percent::total        0.186449                       # Average percentage of cache occupancy
system.cpu3.dcache.ReadReq_hits::cpu3.data       926870                       # number of ReadReq hits
system.cpu3.dcache.ReadReq_hits::total         926870                       # number of ReadReq hits
system.cpu3.dcache.WriteReq_hits::cpu3.data       725648                       # number of WriteReq hits
system.cpu3.dcache.WriteReq_hits::total        725648                       # number of WriteReq hits
system.cpu3.dcache.LoadLockedReq_hits::cpu3.data           21                       # number of LoadLockedReq hits
system.cpu3.dcache.LoadLockedReq_hits::total           21                       # number of LoadLockedReq hits
system.cpu3.dcache.StoreCondReq_hits::cpu3.data           15                       # number of StoreCondReq hits
system.cpu3.dcache.StoreCondReq_hits::total           15                       # number of StoreCondReq hits
system.cpu3.dcache.demand_hits::cpu3.data      1652518                       # number of demand (read+write) hits
system.cpu3.dcache.demand_hits::total         1652518                       # number of demand (read+write) hits
system.cpu3.dcache.overall_hits::cpu3.data      1652518                       # number of overall hits
system.cpu3.dcache.overall_hits::total        1652518                       # number of overall hits
system.cpu3.dcache.ReadReq_misses::cpu3.data       212069                       # number of ReadReq misses
system.cpu3.dcache.ReadReq_misses::total       212069                       # number of ReadReq misses
system.cpu3.dcache.WriteReq_misses::cpu3.data        25254                       # number of WriteReq misses
system.cpu3.dcache.WriteReq_misses::total        25254                       # number of WriteReq misses
system.cpu3.dcache.LoadLockedReq_misses::cpu3.data            7                       # number of LoadLockedReq misses
system.cpu3.dcache.LoadLockedReq_misses::total            7                       # number of LoadLockedReq misses
system.cpu3.dcache.StoreCondReq_misses::cpu3.data           10                       # number of StoreCondReq misses
system.cpu3.dcache.StoreCondReq_misses::total           10                       # number of StoreCondReq misses
system.cpu3.dcache.demand_misses::cpu3.data       237323                       # number of demand (read+write) misses
system.cpu3.dcache.demand_misses::total        237323                       # number of demand (read+write) misses
system.cpu3.dcache.overall_misses::cpu3.data       237323                       # number of overall misses
system.cpu3.dcache.overall_misses::total       237323                       # number of overall misses
system.cpu3.dcache.ReadReq_miss_latency::cpu3.data  11402896000                       # number of ReadReq miss cycles
system.cpu3.dcache.ReadReq_miss_latency::total  11402896000                       # number of ReadReq miss cycles
system.cpu3.dcache.WriteReq_miss_latency::cpu3.data   1488915281                       # number of WriteReq miss cycles
system.cpu3.dcache.WriteReq_miss_latency::total   1488915281                       # number of WriteReq miss cycles
system.cpu3.dcache.LoadLockedReq_miss_latency::cpu3.data       142000                       # number of LoadLockedReq miss cycles
system.cpu3.dcache.LoadLockedReq_miss_latency::total       142000                       # number of LoadLockedReq miss cycles
system.cpu3.dcache.StoreCondReq_miss_latency::cpu3.data       131000                       # number of StoreCondReq miss cycles
system.cpu3.dcache.StoreCondReq_miss_latency::total       131000                       # number of StoreCondReq miss cycles
system.cpu3.dcache.demand_miss_latency::cpu3.data  12891811281                       # number of demand (read+write) miss cycles
system.cpu3.dcache.demand_miss_latency::total  12891811281                       # number of demand (read+write) miss cycles
system.cpu3.dcache.overall_miss_latency::cpu3.data  12891811281                       # number of overall miss cycles
system.cpu3.dcache.overall_miss_latency::total  12891811281                       # number of overall miss cycles
system.cpu3.dcache.ReadReq_accesses::cpu3.data      1138939                       # number of ReadReq accesses(hits+misses)
system.cpu3.dcache.ReadReq_accesses::total      1138939                       # number of ReadReq accesses(hits+misses)
system.cpu3.dcache.WriteReq_accesses::cpu3.data       750902                       # number of WriteReq accesses(hits+misses)
system.cpu3.dcache.WriteReq_accesses::total       750902                       # number of WriteReq accesses(hits+misses)
system.cpu3.dcache.LoadLockedReq_accesses::cpu3.data           28                       # number of LoadLockedReq accesses(hits+misses)
system.cpu3.dcache.LoadLockedReq_accesses::total           28                       # number of LoadLockedReq accesses(hits+misses)
system.cpu3.dcache.StoreCondReq_accesses::cpu3.data           25                       # number of StoreCondReq accesses(hits+misses)
system.cpu3.dcache.StoreCondReq_accesses::total           25                       # number of StoreCondReq accesses(hits+misses)
system.cpu3.dcache.demand_accesses::cpu3.data      1889841                       # number of demand (read+write) accesses
system.cpu3.dcache.demand_accesses::total      1889841                       # number of demand (read+write) accesses
system.cpu3.dcache.overall_accesses::cpu3.data      1889841                       # number of overall (read+write) accesses
system.cpu3.dcache.overall_accesses::total      1889841                       # number of overall (read+write) accesses
system.cpu3.dcache.ReadReq_miss_rate::cpu3.data     0.186199                       # miss rate for ReadReq accesses
system.cpu3.dcache.ReadReq_miss_rate::total     0.186199                       # miss rate for ReadReq accesses
system.cpu3.dcache.WriteReq_miss_rate::cpu3.data     0.033632                       # miss rate for WriteReq accesses
system.cpu3.dcache.WriteReq_miss_rate::total     0.033632                       # miss rate for WriteReq accesses
system.cpu3.dcache.LoadLockedReq_miss_rate::cpu3.data     0.250000                       # miss rate for LoadLockedReq accesses
system.cpu3.dcache.LoadLockedReq_miss_rate::total     0.250000                       # miss rate for LoadLockedReq accesses
system.cpu3.dcache.StoreCondReq_miss_rate::cpu3.data     0.400000                       # miss rate for StoreCondReq accesses
system.cpu3.dcache.StoreCondReq_miss_rate::total     0.400000                       # miss rate for StoreCondReq accesses
system.cpu3.dcache.demand_miss_rate::cpu3.data     0.125578                       # miss rate for demand accesses
system.cpu3.dcache.demand_miss_rate::total     0.125578                       # miss rate for demand accesses
system.cpu3.dcache.overall_miss_rate::cpu3.data     0.125578                       # miss rate for overall accesses
system.cpu3.dcache.overall_miss_rate::total     0.125578                       # miss rate for overall accesses
system.cpu3.dcache.ReadReq_avg_miss_latency::cpu3.data 53769.744753                       # average ReadReq miss latency
system.cpu3.dcache.ReadReq_avg_miss_latency::total 53769.744753                       # average ReadReq miss latency
system.cpu3.dcache.WriteReq_avg_miss_latency::cpu3.data 58957.602004                       # average WriteReq miss latency
system.cpu3.dcache.WriteReq_avg_miss_latency::total 58957.602004                       # average WriteReq miss latency
system.cpu3.dcache.LoadLockedReq_avg_miss_latency::cpu3.data 20285.714286                       # average LoadLockedReq miss latency
system.cpu3.dcache.LoadLockedReq_avg_miss_latency::total 20285.714286                       # average LoadLockedReq miss latency
system.cpu3.dcache.StoreCondReq_avg_miss_latency::cpu3.data        13100                       # average StoreCondReq miss latency
system.cpu3.dcache.StoreCondReq_avg_miss_latency::total        13100                       # average StoreCondReq miss latency
system.cpu3.dcache.demand_avg_miss_latency::cpu3.data 54321.794689                       # average overall miss latency
system.cpu3.dcache.demand_avg_miss_latency::total 54321.794689                       # average overall miss latency
system.cpu3.dcache.overall_avg_miss_latency::cpu3.data 54321.794689                       # average overall miss latency
system.cpu3.dcache.overall_avg_miss_latency::total 54321.794689                       # average overall miss latency
system.cpu3.dcache.blocked_cycles::no_mshrs       540000                       # number of cycles access was blocked
system.cpu3.dcache.blocked_cycles::no_targets    939814996                       # number of cycles access was blocked
system.cpu3.dcache.blocked::no_mshrs               33                       # number of cycles access was blocked
system.cpu3.dcache.blocked::no_targets          20246                       # number of cycles access was blocked
system.cpu3.dcache.avg_blocked_cycles::no_mshrs 16363.636364                       # average number of cycles each access was blocked
system.cpu3.dcache.avg_blocked_cycles::no_targets 46419.786427                       # average number of cycles each access was blocked
system.cpu3.dcache.fast_writes                      0                       # number of fast writes performed
system.cpu3.dcache.cache_copies                     0                       # number of cache copies performed
system.cpu3.dcache.writebacks::writebacks        20235                       # number of writebacks
system.cpu3.dcache.writebacks::total            20235                       # number of writebacks
system.cpu3.dcache.ReadReq_mshr_hits::cpu3.data       174604                       # number of ReadReq MSHR hits
system.cpu3.dcache.ReadReq_mshr_hits::total       174604                       # number of ReadReq MSHR hits
system.cpu3.dcache.WriteReq_mshr_hits::cpu3.data        12828                       # number of WriteReq MSHR hits
system.cpu3.dcache.WriteReq_mshr_hits::total        12828                       # number of WriteReq MSHR hits
system.cpu3.dcache.LoadLockedReq_mshr_hits::cpu3.data            3                       # number of LoadLockedReq MSHR hits
system.cpu3.dcache.LoadLockedReq_mshr_hits::total            3                       # number of LoadLockedReq MSHR hits
system.cpu3.dcache.demand_mshr_hits::cpu3.data       187432                       # number of demand (read+write) MSHR hits
system.cpu3.dcache.demand_mshr_hits::total       187432                       # number of demand (read+write) MSHR hits
system.cpu3.dcache.overall_mshr_hits::cpu3.data       187432                       # number of overall MSHR hits
system.cpu3.dcache.overall_mshr_hits::total       187432                       # number of overall MSHR hits
system.cpu3.dcache.ReadReq_mshr_misses::cpu3.data        37465                       # number of ReadReq MSHR misses
system.cpu3.dcache.ReadReq_mshr_misses::total        37465                       # number of ReadReq MSHR misses
system.cpu3.dcache.WriteReq_mshr_misses::cpu3.data        12426                       # number of WriteReq MSHR misses
system.cpu3.dcache.WriteReq_mshr_misses::total        12426                       # number of WriteReq MSHR misses
system.cpu3.dcache.LoadLockedReq_mshr_misses::cpu3.data            4                       # number of LoadLockedReq MSHR misses
system.cpu3.dcache.LoadLockedReq_mshr_misses::total            4                       # number of LoadLockedReq MSHR misses
system.cpu3.dcache.StoreCondReq_mshr_misses::cpu3.data           10                       # number of StoreCondReq MSHR misses
system.cpu3.dcache.StoreCondReq_mshr_misses::total           10                       # number of StoreCondReq MSHR misses
system.cpu3.dcache.demand_mshr_misses::cpu3.data        49891                       # number of demand (read+write) MSHR misses
system.cpu3.dcache.demand_mshr_misses::total        49891                       # number of demand (read+write) MSHR misses
system.cpu3.dcache.overall_mshr_misses::cpu3.data        49891                       # number of overall MSHR misses
system.cpu3.dcache.overall_mshr_misses::total        49891                       # number of overall MSHR misses
system.cpu3.dcache.ReadReq_mshr_miss_latency::cpu3.data   2036677000                       # number of ReadReq MSHR miss cycles
system.cpu3.dcache.ReadReq_mshr_miss_latency::total   2036677000                       # number of ReadReq MSHR miss cycles
system.cpu3.dcache.WriteReq_mshr_miss_latency::cpu3.data    766965654                       # number of WriteReq MSHR miss cycles
system.cpu3.dcache.WriteReq_mshr_miss_latency::total    766965654                       # number of WriteReq MSHR miss cycles
system.cpu3.dcache.LoadLockedReq_mshr_miss_latency::cpu3.data         9000                       # number of LoadLockedReq MSHR miss cycles
system.cpu3.dcache.LoadLockedReq_mshr_miss_latency::total         9000                       # number of LoadLockedReq MSHR miss cycles
system.cpu3.dcache.StoreCondReq_mshr_miss_latency::cpu3.data       101000                       # number of StoreCondReq MSHR miss cycles
system.cpu3.dcache.StoreCondReq_mshr_miss_latency::total       101000                       # number of StoreCondReq MSHR miss cycles
system.cpu3.dcache.demand_mshr_miss_latency::cpu3.data   2803642654                       # number of demand (read+write) MSHR miss cycles
system.cpu3.dcache.demand_mshr_miss_latency::total   2803642654                       # number of demand (read+write) MSHR miss cycles
system.cpu3.dcache.overall_mshr_miss_latency::cpu3.data   2803642654                       # number of overall MSHR miss cycles
system.cpu3.dcache.overall_mshr_miss_latency::total   2803642654                       # number of overall MSHR miss cycles
system.cpu3.dcache.ReadReq_mshr_miss_rate::cpu3.data     0.032895                       # mshr miss rate for ReadReq accesses
system.cpu3.dcache.ReadReq_mshr_miss_rate::total     0.032895                       # mshr miss rate for ReadReq accesses
system.cpu3.dcache.WriteReq_mshr_miss_rate::cpu3.data     0.016548                       # mshr miss rate for WriteReq accesses
system.cpu3.dcache.WriteReq_mshr_miss_rate::total     0.016548                       # mshr miss rate for WriteReq accesses
system.cpu3.dcache.LoadLockedReq_mshr_miss_rate::cpu3.data     0.142857                       # mshr miss rate for LoadLockedReq accesses
system.cpu3.dcache.LoadLockedReq_mshr_miss_rate::total     0.142857                       # mshr miss rate for LoadLockedReq accesses
system.cpu3.dcache.StoreCondReq_mshr_miss_rate::cpu3.data     0.400000                       # mshr miss rate for StoreCondReq accesses
system.cpu3.dcache.StoreCondReq_mshr_miss_rate::total     0.400000                       # mshr miss rate for StoreCondReq accesses
system.cpu3.dcache.demand_mshr_miss_rate::cpu3.data     0.026400                       # mshr miss rate for demand accesses
system.cpu3.dcache.demand_mshr_miss_rate::total     0.026400                       # mshr miss rate for demand accesses
system.cpu3.dcache.overall_mshr_miss_rate::cpu3.data     0.026400                       # mshr miss rate for overall accesses
system.cpu3.dcache.overall_mshr_miss_rate::total     0.026400                       # mshr miss rate for overall accesses
system.cpu3.dcache.ReadReq_avg_mshr_miss_latency::cpu3.data 54362.124650                       # average ReadReq mshr miss latency
system.cpu3.dcache.ReadReq_avg_mshr_miss_latency::total 54362.124650                       # average ReadReq mshr miss latency
system.cpu3.dcache.WriteReq_avg_mshr_miss_latency::cpu3.data 61722.650410                       # average WriteReq mshr miss latency
system.cpu3.dcache.WriteReq_avg_mshr_miss_latency::total 61722.650410                       # average WriteReq mshr miss latency
system.cpu3.dcache.LoadLockedReq_avg_mshr_miss_latency::cpu3.data         2250                       # average LoadLockedReq mshr miss latency
system.cpu3.dcache.LoadLockedReq_avg_mshr_miss_latency::total         2250                       # average LoadLockedReq mshr miss latency
system.cpu3.dcache.StoreCondReq_avg_mshr_miss_latency::cpu3.data        10100                       # average StoreCondReq mshr miss latency
system.cpu3.dcache.StoreCondReq_avg_mshr_miss_latency::total        10100                       # average StoreCondReq mshr miss latency
system.cpu3.dcache.demand_avg_mshr_miss_latency::cpu3.data 56195.358963                       # average overall mshr miss latency
system.cpu3.dcache.demand_avg_mshr_miss_latency::total 56195.358963                       # average overall mshr miss latency
system.cpu3.dcache.overall_avg_mshr_miss_latency::cpu3.data 56195.358963                       # average overall mshr miss latency
system.cpu3.dcache.overall_avg_mshr_miss_latency::total 56195.358963                       # average overall mshr miss latency
system.cpu3.dcache.no_allocate_misses               0                       # Number of misses that were no-allocate

---------- End Simulation Statistics   ----------
